lig
  PyMOL2.3          3D                             0

 26 27  0  0  0  0  0  0  0  0999 V2000
   43.9660  -44.7840    3.8520 P   0  0  0  0  0  0  0  0  0  0  0  0
   42.4190  -42.6780    2.5130 P   0  0  0  0  0  0  0  0  0  0  0  0
   41.7640  -46.2390    3.3000 C   0  0  0  0  0  0  0  0  0  0  0  0
   42.7890  -45.8220    4.1970 O   0  0  0  0  0  0  0  0  0  0  0  0
   40.3820  -46.3250    3.9690 C   0  0  0  0  0  0  0  0  0  0  0  0
   40.3340  -47.0820    5.2010 O   0  0  0  0  0  0  0  0  0  0  0  0
   39.7660  -44.9800    4.3200 C   0  0  0  0  0  0  0  0  0  0  0  0
   39.3160  -44.2360    3.1750 O   0  0  0  0  0  0  0  0  0  0  0  0
   38.6530  -45.4080    5.2700 C   0  0  0  0  0  0  0  0  0  0  0  0
   39.3090  -46.5600    6.0610 C   0  0  0  0  0  0  0  0  0  0  0  0
   39.8420  -46.0570    7.3410 N   0  0  0  0  0  0  0  0  0  0  0  0
   44.7210  -44.8960    5.1430 O   0  5  0  0  0  0  0  0  0  0  0  0
   43.0640  -41.3180    2.2610 O   0  0  0  0  0  0  0  0  0  0  0  0
   39.1230  -46.1770    8.4920 C   0  0  0  0  0  0  0  0  0  0  0  0
   38.1010  -44.2220    6.0670 C   0  0  0  0  0  0  0  0  0  0  0  0
   37.9120  -46.7870    8.5240 O   0  0  0  0  0  0  0  0  0  0  0  0
   44.6630  -45.1240    2.5500 O   0  0  0  0  0  0  0  0  0  0  0  0
   42.4720  -43.7080    1.3920 O   0  5  0  0  0  0  0  0  0  0  0  0
   39.5860  -45.6890    9.6660 N   0  0  0  0  0  0  0  0  0  0  0  0
   43.2480  -43.3220    3.7690 O   0  0  0  0  0  0  0  0  0  0  0  0
   41.0190  -42.4640    3.0380 O   0  0  0  0  0  0  0  0  0  0  0  0
   40.7880  -45.0720    9.7130 C   0  0  0  0  0  0  0  0  0  0  0  0
   41.2410  -44.5900   10.8920 O   0  0  0  0  0  0  0  0  0  0  0  0
   41.5540  -44.9310    8.5560 C   0  0  0  0  0  0  0  0  0  0  0  0
   41.0480  -45.4360    7.3620 C   0  0  0  0  0  0  0  0  0  0  0  0
   37.6280  -45.8960    4.5860 F   0  0  0  0  0  0  0  0  0  0  0  0
  1 12  1  0  0  0  0
  1 17  2  0  0  0  0
  1 20  1  0  0  0  0
  2 13  1  0  0  0  0
  2 18  1  0  0  0  0
  2 21  2  0  0  0  0
  3  4  1  0  0  0  0
  1  4  1  0  0  0  0
  3  5  1  0  0  0  0
  5  6  1  0  0  0  0
  5  7  1  0  0  0  0
  7  8  1  0  0  0  0
  7  9  1  0  0  0  0
  9 10  1  0  0  0  0
  9 15  1  0  0  0  0
  6 10  1  0  0  0  0
 10 11  1  0  0  0  0
 11 25  4  0  0  0  0
 11 14  4  0  0  0  0
 14 16  2  0  0  0  0
 14 19  4  0  0  0  0
 19 22  4  0  0  0  0
  2 20  1  0  0  0  0
 22 23  2  0  0  0  0
 22 24  4  0  0  0  0
 24 25  4  0  0  0  0
  9 26  1  0  0  0  0
M  END
$$$$
