design_1
 OpenBabel05252019093D

 25 28  0  0  0  0  0  0  0  0999 V2000
   38.3858  -41.8022   10.2230 O   0  0  0  0  0  0  0  0  0  0  0  0
   39.4575  -42.1889    9.7525 C   0  0  0  0  0  0  0  0  0  0  0  0
   40.1263  -41.2375    8.8712 N   0  0  0  0  0  0  0  0  0  0  0  0
   39.5867  -39.9665    8.5270 C   0  0  0  0  0  0  0  0  0  0  0  0
   40.5729  -38.8628    8.2752 C   0  0  0  0  0  0  0  0  0  0  0  0
   40.4553  -38.5224    6.8039 C   0  0  0  0  0  0  0  0  0  0  0  0
   40.8297  -39.1553    5.7273 N   0  0  0  0  0  0  0  0  0  0  0  0
   40.6348  -38.6429    4.5478 C   0  0  0  0  0  0  0  0  0  0  0  0
   40.9958  -39.2148    3.3180 C   0  0  0  0  0  0  0  0  0  0  0  0
   40.7466  -38.5786    2.1340 C   0  0  0  0  0  0  0  0  0  0  0  0
   40.1325  -37.3485    2.0714 C   0  0  0  0  0  0  0  0  0  0  0  0
   39.7730  -36.7746    3.2630 C   0  0  0  0  0  0  0  0  0  0  0  0
   40.0251  -37.4206    4.4818 C   0  0  0  0  0  0  0  0  0  0  0  0
   39.7649  -37.0751    6.1360 S   0  0  0  0  0  0  0  0  0  0  0  0
   40.0566  -43.4380    9.9928 N   0  0  0  0  0  0  0  0  0  0  0  0
   40.6254  -44.6240   10.2208 C   0  0  2  0  0  0  0  0  0  0  0  0
   42.1721  -44.5231   10.2924 C   0  0  0  0  0  0  0  0  0  0  0  0
   42.7481  -44.3719    8.9255 C   0  0  0  0  0  0  0  0  0  0  0  0
   42.3755  -45.4167    7.9393 C   0  0  0  0  0  0  0  0  0  0  0  0
   41.0851  -46.0872    8.1972 C   0  0  0  0  0  0  0  0  0  0  0  0
   40.6813  -47.1266    7.3516 C   0  0  0  0  0  0  0  0  0  0  0  0
   39.4825  -47.7884    7.5428 C   0  0  0  0  0  0  0  0  0  0  0  0
   38.6640  -47.4002    8.6086 C   0  0  0  0  0  0  0  0  0  0  0  0
   39.0861  -46.3643    9.4361 C   0  0  0  0  0  0  0  0  0  0  0  0
   40.2965  -45.7144    9.2244 C   0  0  0  0  0  0  0  0  0  0  0  0
  1  2  2  0  0  0  0
  2  3  1  0  0  0  0
  2 15  1  0  0  0  0
  3  4  1  0  0  0  0
  4  5  1  0  0  0  0
  5  6  1  0  0  0  0
  6  7  2  0  0  0  0
  7  8  1  0  0  0  0
  8  9  2  0  0  0  0
  9 10  1  0  0  0  0
 10 11  2  0  0  0  0
 11 12  1  0  0  0  0
 12 13  2  0  0  0  0
 13 14  1  0  0  0  0
 13  8  1  0  0  0  0
 14  6  1  0  0  0  0
 16 15  1  6  0  0  0
 16 17  1  0  0  0  0
 17 18  1  0  0  0  0
 18 19  1  0  0  0  0
 19 20  1  0  0  0  0
 20 21  2  0  0  0  0
 21 22  1  0  0  0  0
 22 23  2  0  0  0  0
 23 24  1  0  0  0  0
 24 25  2  0  0  0  0
 25 16  1  0  0  0  0
 25 20  1  0  0  0  0
M  END
>  <CHROM.1>
148.33720023,113.38096925,-72.39299918,105.68836162,40.31674501,-41.73480496
7.28284718,1.46863119,-1.39271787,2.52496740

>  <Name>
design_1

>  <RI>
0

>  <Rbt.Current_Directory>
/home/ziqiaoxu/icml18-jtnn/VAEdesign

>  <Rbt.Executable>
rbdock ($Id: //depot/dev/client3/rdock/2013.1/src/exe/rbdock.cxx#4 $)

>  <Rbt.Library>
libRbt.so (2013.1, Build901 2013/11/27)

>  <Rbt.Parameter_File>
/export/apps/rDock/src/rDock_2013.1_src//data/scripts/dock.prm

>  <Rbt.Receptor>
/home/ziqiaoxu/icml18-jtnn/VAEdesign/targets/RdRp-SARS-CoV-2/pocket_docking.prm

>  <SCORE>
-22.0538

>  <SCORE.INTER>
-22.8895

>  <SCORE.INTER.CONST>
1

>  <SCORE.INTER.POLAR>
-0.829228

>  <SCORE.INTER.REPUL>
0.00226676

>  <SCORE.INTER.ROT>
4

>  <SCORE.INTER.VDW>
-29.4814

>  <SCORE.INTER.norm>
-0.915579

>  <SCORE.INTRA>
0.810502

>  <SCORE.INTRA.DIHEDRAL>
4.87373

>  <SCORE.INTRA.DIHEDRAL.0>
4.85962

>  <SCORE.INTRA.POLAR>
0

>  <SCORE.INTRA.POLAR.0>
0

>  <SCORE.INTRA.REPUL>
0

>  <SCORE.INTRA.REPUL.0>
0

>  <SCORE.INTRA.VDW>
-1.62636

>  <SCORE.INTRA.VDW.0>
-0.215811

>  <SCORE.INTRA.norm>
0.0324201

>  <SCORE.RESTR>
0.0251895

>  <SCORE.RESTR.CAVITY>
0.0251895

>  <SCORE.RESTR.norm>
0.00100758

>  <SCORE.SYSTEM>
0

>  <SCORE.SYSTEM.CONST>
0

>  <SCORE.SYSTEM.DIHEDRAL>
0

>  <SCORE.SYSTEM.norm>
0

>  <SCORE.heavy>
25

>  <SCORE.norm>
-0.882151

$$$$
design_16
 OpenBabel05252019093D

 26 28  0  0  0  0  0  0  0  0999 V2000
   38.8104  -49.0865    6.6159 C   0  0  0  0  0  0  0  0  0  0  0  0
   39.3515  -47.9753    7.4548 C   0  0  0  0  0  0  0  0  0  0  0  0
   38.5792  -47.5352    8.5085 C   0  0  0  0  0  0  0  0  0  0  0  0
   39.0713  -46.5257    9.2763 C   0  0  0  0  0  0  0  0  0  0  0  0
   40.3203  -45.9486    9.0107 C   0  0  0  0  0  0  0  0  0  0  0  0
   40.7873  -44.8928    9.9411 C   0  0  0  0  0  0  0  0  0  0  0  0
   41.1074  -46.3572    7.9789 C   0  0  0  0  0  0  0  0  0  0  0  0
   42.3836  -45.7888    7.5770 C   0  0  0  0  0  0  0  0  0  0  0  0
   42.5929  -45.9151    6.2992 O   0  0  0  0  0  0  0  0  0  0  0  0
   43.3347  -45.1599    8.3809 N   0  0  0  0  0  0  0  0  0  0  0  0
   44.5613  -44.6646    7.8623 C   0  0  0  0  0  0  0  0  0  0  0  0
   45.4102  -43.7969    8.4807 C   0  0  0  0  0  0  0  0  0  0  0  0
   46.6315  -43.3716    7.9274 C   0  0  0  0  0  0  0  0  0  0  0  0
   46.9586  -43.8732    6.6961 C   0  0  0  0  0  0  0  0  0  0  0  0
   46.1574  -44.7478    6.0109 C   0  0  0  0  0  0  0  0  0  0  0  0
   46.6010  -45.2335    4.7081 C   0  0  0  0  0  0  0  0  0  0  0  0
   47.7632  -44.9360    4.3347 O   0  0  0  0  0  0  0  0  0  0  0  0
   45.7907  -46.0131    3.8595 N   0  0  0  0  0  0  0  0  0  0  0  0
   46.2952  -46.4606    2.5871 C   0  0  0  0  0  0  0  0  0  0  0  0
   45.3213  -46.2853    1.4839 C   0  0  0  0  0  0  0  0  0  0  0  0
   45.5484  -46.4436    0.1445 C   0  0  0  0  0  0  0  0  0  0  0  0
   44.3787  -46.1852   -0.5256 C   0  0  0  0  0  0  0  0  0  0  0  0
   43.4467  -45.8673    0.4605 C   0  0  0  0  0  0  0  0  0  0  0  0
   44.0634  -45.9444    1.6156 O   0  0  0  0  0  0  0  0  0  0  0  0
   44.9796  -45.1315    6.5926 C   0  0  0  0  0  0  0  0  0  0  0  0
   40.5753  -47.4033    7.2003 C   0  0  0  0  0  0  0  0  0  0  0  0
  1  2  1  0  0  0  0
  2  3  2  0  0  0  0
  3  4  1  0  0  0  0
  4  5  2  0  0  0  0
  5  6  1  0  0  0  0
  5  7  1  0  0  0  0
  7  8  1  0  0  0  0
  7 26  2  0  0  0  0
  8  9  2  0  0  0  0
  8 10  1  0  0  0  0
 10 11  1  0  0  0  0
 11 12  2  0  0  0  0
 12 13  1  0  0  0  0
 13 14  2  0  0  0  0
 14 15  1  0  0  0  0
 15 16  1  0  0  0  0
 15 25  2  0  0  0  0
 16 17  2  0  0  0  0
 16 18  1  0  0  0  0
 18 19  1  0  0  0  0
 19 20  1  0  0  0  0
 20 21  2  0  0  0  0
 21 22  1  0  0  0  0
 22 23  2  0  0  0  0
 23 24  1  0  0  0  0
 24 20  1  0  0  0  0
 25 11  1  0  0  0  0
 26  2  1  0  0  0  0
M  END
>  <CHROM.1>
-149.98804555,164.73725391,7.27102764,-135.19154412,170.74473593,43.50741052
-45.83435230,5.75441921,2.38705836,0.42981856,1.30302206

>  <Name>
design_16

>  <RI>
0

>  <Rbt.Current_Directory>
/home/ziqiaoxu/icml18-jtnn/VAEdesign

>  <Rbt.Executable>
rbdock ($Id: //depot/dev/client3/rdock/2013.1/src/exe/rbdock.cxx#4 $)

>  <Rbt.Library>
libRbt.so (2013.1, Build901 2013/11/27)

>  <Rbt.Parameter_File>
/export/apps/rDock/src/rDock_2013.1_src//data/scripts/dock.prm

>  <Rbt.Receptor>
/home/ziqiaoxu/icml18-jtnn/VAEdesign/targets/RdRp-SARS-CoV-2/pocket_docking.prm

>  <SCORE>
-17.1307

>  <SCORE.INTER>
-19.0664

>  <SCORE.INTER.CONST>
1

>  <SCORE.INTER.POLAR>
0

>  <SCORE.INTER.REPUL>
0

>  <SCORE.INTER.ROT>
5

>  <SCORE.INTER.VDW>
-29.4664

>  <SCORE.INTER.norm>
-0.733322

>  <SCORE.INTRA>
1.93568

>  <SCORE.INTRA.DIHEDRAL>
-1.68353

>  <SCORE.INTRA.DIHEDRAL.0>
9.20744

>  <SCORE.INTRA.POLAR>
0

>  <SCORE.INTRA.POLAR.0>
0

>  <SCORE.INTRA.REPUL>
0

>  <SCORE.INTRA.REPUL.0>
0

>  <SCORE.INTRA.VDW>
2.77745

>  <SCORE.INTRA.VDW.0>
-0.55369

>  <SCORE.INTRA.norm>
0.0744494

>  <SCORE.RESTR>
0

>  <SCORE.RESTR.CAVITY>
0

>  <SCORE.RESTR.norm>
0

>  <SCORE.SYSTEM>
0

>  <SCORE.SYSTEM.CONST>
0

>  <SCORE.SYSTEM.DIHEDRAL>
0

>  <SCORE.SYSTEM.norm>
0

>  <SCORE.heavy>
26

>  <SCORE.norm>
-0.658872

$$$$
design_13
 OpenBabel05252019093D

 26 28  0  0  0  0  0  0  0  0999 V2000
   39.3598  -49.0054    6.4297 C   0  0  0  0  0  0  0  0  0  0  0  0
   40.2927  -47.9625    6.4491 O   0  0  0  0  0  0  0  0  0  0  0  0
   40.3789  -47.1701    7.5661 C   0  0  0  0  0  0  0  0  0  0  0  0
   39.3784  -47.1259    8.5075 C   0  0  0  0  0  0  0  0  0  0  0  0
   39.5041  -46.3221    9.6116 C   0  0  0  0  0  0  0  0  0  0  0  0
   40.6340  -45.5333    9.8157 C   0  0  0  0  0  0  0  0  0  0  0  0
   41.6432  -45.5522    8.9064 C   0  0  0  0  0  0  0  0  0  0  0  0
   42.8430  -44.8100    9.0212 N   0  0  0  0  0  0  0  0  0  0  0  0
   43.1350  -44.0978   10.1662 C   0  0  0  0  0  0  0  0  0  0  0  0
   44.3311  -43.5150   10.0378 N   0  0  0  0  0  0  0  0  0  0  0  0
   44.8216  -43.8152    8.8687 N   0  0  0  0  0  0  0  0  0  0  0  0
   43.8807  -44.6228    8.2467 C   0  0  0  0  0  0  0  0  0  0  0  0
   44.1144  -45.2324    6.5745 S   0  0  0  0  0  0  0  0  0  0  0  0
   45.5210  -44.3053    5.8500 C   0  0  0  0  0  0  0  0  0  0  0  0
   45.8304  -44.7366    4.4755 C   0  0  0  0  0  0  0  0  0  0  0  0
   45.8416  -43.9584    3.5022 O   0  0  0  0  0  0  0  0  0  0  0  0
   46.1353  -46.1209    4.2393 N   0  0  0  0  0  0  0  0  0  0  0  0
   46.4426  -46.6293    2.9436 C   0  0  0  0  0  0  0  0  0  0  0  0
   45.4277  -46.3491    1.9022 C   0  0  0  0  0  0  0  0  0  0  0  0
   44.1435  -45.9346    2.1456 C   0  0  0  0  0  0  0  0  0  0  0  0
   43.2228  -45.6979    1.1245 C   0  0  0  0  0  0  0  0  0  0  0  0
   43.6314  -45.8912   -0.1731 C   0  0  0  0  0  0  0  0  0  0  0  0
   44.9220  -46.3078   -0.4179 C   0  0  0  0  0  0  0  0  0  0  0  0
   45.8298  -46.5414    0.5762 C   0  0  0  0  0  0  0  0  0  0  0  0
   47.2146  -46.9884    0.2565 C   0  0  0  0  0  0  0  0  0  0  0  0
   41.4772  -46.3911    7.7817 C   0  0  0  0  0  0  0  0  0  0  0  0
  1  2  1  0  0  0  0
  2  3  1  0  0  0  0
  3  4  2  0  0  0  0
  4  5  1  0  0  0  0
  5  6  2  0  0  0  0
  6  7  1  0  0  0  0
  7  8  1  0  0  0  0
  7 26  2  0  0  0  0
  8  9  1  0  0  0  0
  9 10  2  0  0  0  0
 10 11  1  0  0  0  0
 11 12  2  0  0  0  0
 12 13  1  0  0  0  0
 12  8  1  0  0  0  0
 13 14  1  0  0  0  0
 14 15  1  0  0  0  0
 15 16  2  0  0  0  0
 15 17  1  0  0  0  0
 17 18  1  0  0  0  0
 18 19  1  0  0  0  0
 19 20  2  0  0  0  0
 20 21  1  0  0  0  0
 21 22  2  0  0  0  0
 22 23  1  0  0  0  0
 23 24  2  0  0  0  0
 24 25  1  0  0  0  0
 24 19  1  0  0  0  0
 26  3  1  0  0  0  0
M  END
>  <CHROM.1>
-17.37297476,6.78193351,165.36662445,178.90916038,123.07970341,-54.73996012
-15.48470404,43.51191355,-45.77780850,5.59688117,2.13522771,0.51129585,1.23086003

>  <Name>
design_13

>  <RI>
0

>  <Rbt.Current_Directory>
/home/ziqiaoxu/icml18-jtnn/VAEdesign

>  <Rbt.Executable>
rbdock ($Id: //depot/dev/client3/rdock/2013.1/src/exe/rbdock.cxx#4 $)

>  <Rbt.Library>
libRbt.so (2013.1, Build901 2013/11/27)

>  <Rbt.Parameter_File>
/export/apps/rDock/src/rDock_2013.1_src//data/scripts/dock.prm

>  <Rbt.Receptor>
/home/ziqiaoxu/icml18-jtnn/VAEdesign/targets/RdRp-SARS-CoV-2/pocket_docking.prm

>  <SCORE>
-24.3241

>  <SCORE.INTER>
-20.8581

>  <SCORE.INTER.CONST>
1

>  <SCORE.INTER.POLAR>
-1.15488

>  <SCORE.INTER.REPUL>
0

>  <SCORE.INTER.ROT>
7

>  <SCORE.INTER.VDW>
-29.3315

>  <SCORE.INTER.norm>
-0.802235

>  <SCORE.INTRA>
-3.46595

>  <SCORE.INTRA.DIHEDRAL>
-5.48618

>  <SCORE.INTRA.DIHEDRAL.0>
9.55821

>  <SCORE.INTRA.POLAR>
0

>  <SCORE.INTRA.POLAR.0>
0

>  <SCORE.INTRA.REPUL>
0

>  <SCORE.INTRA.REPUL.0>
0

>  <SCORE.INTRA.VDW>
-0.722858

>  <SCORE.INTRA.VDW.0>
1.76062

>  <SCORE.INTRA.norm>
-0.133306

>  <SCORE.RESTR>
0

>  <SCORE.RESTR.CAVITY>
0

>  <SCORE.RESTR.norm>
0

>  <SCORE.SYSTEM>
0

>  <SCORE.SYSTEM.CONST>
0

>  <SCORE.SYSTEM.DIHEDRAL>
0

>  <SCORE.SYSTEM.norm>
0

>  <SCORE.heavy>
26

>  <SCORE.norm>
-0.935541

$$$$
design_12
 OpenBabel05252019093D

 24 26  0  0  0  0  0  0  0  0999 V2000
   41.1810  -44.6482   10.7458 C   0  0  0  0  0  0  0  0  0  0  0  0
   40.7570  -45.5412    9.6266 C   0  0  0  0  0  0  0  0  0  0  0  0
   39.5908  -46.2842    9.7289 C   0  0  0  0  0  0  0  0  0  0  0  0
   39.1709  -47.1150    8.7070 C   0  0  0  0  0  0  0  0  0  0  0  0
   39.8922  -47.2436    7.5381 C   0  0  0  0  0  0  0  0  0  0  0  0
   39.3424  -48.2396    6.2043 S   0  0  0  0  0  0  0  0  0  0  0  0
   40.3636  -48.1105    5.1167 O   0  0  0  0  0  0  0  0  0  0  0  0
   39.2141  -49.6537    6.7007 O   0  0  0  0  0  0  0  0  0  0  0  0
   37.7684  -47.6768    5.7085 N   0  0  0  0  0  0  0  0  0  0  0  0
   37.4509  -46.2907    5.7957 C   0  0  0  0  0  0  0  0  0  0  0  0
   36.1684  -45.8285    5.5347 C   0  0  0  0  0  0  0  0  0  0  0  0
   35.8723  -44.4646    5.6060 C   0  0  0  0  0  0  0  0  0  0  0  0
   36.8486  -43.5414    5.9411 C   0  0  0  0  0  0  0  0  0  0  0  0
   36.4959  -42.1401    5.9842 N   0  0  0  0  0  0  0  0  0  0  0  0
   35.1912  -41.6336    5.6348 C   0  0  0  0  0  0  0  0  0  0  0  0
   35.1529  -40.2884    6.2975 C   0  0  0  0  0  0  0  0  0  0  0  0
   36.5214  -39.8644    6.2689 N   0  0  0  0  0  0  0  0  0  0  0  0
   37.3086  -41.0605    6.3493 C   0  0  0  0  0  0  0  0  0  0  0  0
   38.5204  -41.1037    6.6898 O   0  0  0  0  0  0  0  0  0  0  0  0
   38.1159  -44.0018    6.1999 C   0  0  0  0  0  0  0  0  0  0  0  0
   38.4053  -45.3716    6.1246 C   0  0  0  0  0  0  0  0  0  0  0  0
   41.0616  -46.4966    7.4439 C   0  0  0  0  0  0  0  0  0  0  0  0
   41.4801  -45.6674    8.4630 C   0  0  0  0  0  0  0  0  0  0  0  0
   42.7188  -44.8906    8.2615 C   0  0  0  0  0  0  0  0  0  0  0  0
  1  2  1  0  0  0  0
  2  3  2  0  0  0  0
  3  4  1  0  0  0  0
  4  5  2  0  0  0  0
  5  6  1  0  0  0  0
  5 22  1  0  0  0  0
  6  7  2  0  0  0  0
  6  8  2  0  0  0  0
  6  9  1  0  0  0  0
  9 10  1  0  0  0  0
 10 11  2  0  0  0  0
 11 12  1  0  0  0  0
 12 13  2  0  0  0  0
 13 14  1  0  0  0  0
 13 20  1  0  0  0  0
 14 15  1  0  0  0  0
 15 16  1  0  0  0  0
 16 17  1  0  0  0  0
 17 18  1  0  0  0  0
 18 19  2  0  0  0  0
 18 14  1  0  0  0  0
 20 21  2  0  0  0  0
 21 10  1  0  0  0  0
 22 23  2  0  0  0  0
 23 24  1  0  0  0  0
 23  2  1  0  0  0  0
M  END
>  <CHROM.1>
178.98532596,33.41937675,-173.59224180,-3.04823919,38.58185126,-45.05735103
6.88694170,-0.84989086,-0.66652248,0.28754150

>  <Name>
design_12

>  <RI>
0

>  <Rbt.Current_Directory>
/home/ziqiaoxu/icml18-jtnn/VAEdesign

>  <Rbt.Executable>
rbdock ($Id: //depot/dev/client3/rdock/2013.1/src/exe/rbdock.cxx#4 $)

>  <Rbt.Library>
libRbt.so (2013.1, Build901 2013/11/27)

>  <Rbt.Parameter_File>
/export/apps/rDock/src/rDock_2013.1_src//data/scripts/dock.prm

>  <Rbt.Receptor>
/home/ziqiaoxu/icml18-jtnn/VAEdesign/targets/RdRp-SARS-CoV-2/pocket_docking.prm

>  <SCORE>
-27.1774

>  <SCORE.INTER>
-19.6295

>  <SCORE.INTER.CONST>
1

>  <SCORE.INTER.POLAR>
0

>  <SCORE.INTER.REPUL>
0.0224055

>  <SCORE.INTER.ROT>
4

>  <SCORE.INTER.VDW>
-29.1415

>  <SCORE.INTER.norm>
-0.817895

>  <SCORE.INTRA>
-7.54796

>  <SCORE.INTRA.DIHEDRAL>
-18.1653

>  <SCORE.INTRA.DIHEDRAL.0>
20.7899

>  <SCORE.INTRA.POLAR>
0

>  <SCORE.INTRA.POLAR.0>
0

>  <SCORE.INTRA.REPUL>
0

>  <SCORE.INTRA.REPUL.0>
0

>  <SCORE.INTRA.VDW>
1.53469

>  <SCORE.INTRA.VDW.0>
-2.48404

>  <SCORE.INTRA.norm>
-0.314498

>  <SCORE.RESTR>
0

>  <SCORE.RESTR.CAVITY>
0

>  <SCORE.RESTR.norm>
0

>  <SCORE.SYSTEM>
0

>  <SCORE.SYSTEM.CONST>
0

>  <SCORE.SYSTEM.DIHEDRAL>
0

>  <SCORE.SYSTEM.norm>
0

>  <SCORE.heavy>
24

>  <SCORE.norm>
-1.13239

$$$$
design_5
 OpenBabel05252019093D

 25 27  0  0  0  0  0  0  0  0999 V2000
   40.2636  -46.2025    8.6649 C   0  0  0  0  0  0  0  0  0  0  0  0
   41.5354  -45.5120    8.5853 N   0  0  0  0  0  0  0  0  0  0  0  0
   41.8619  -44.5908    9.4957 C   0  0  0  0  0  0  0  0  0  0  0  0
   40.9390  -44.0498   10.8657 S   0  0  0  0  0  0  0  0  0  0  0  0
   39.7649  -42.7733   10.6903 C   0  0  0  0  0  0  0  0  0  0  0  0
   39.7570  -42.1614    9.3176 C   0  0  0  0  0  0  0  0  0  0  0  0
   39.9156  -42.8735    8.3080 O   0  0  0  0  0  0  0  0  0  0  0  0
   39.5695  -40.7808    9.1997 N   0  0  0  0  0  0  0  0  0  0  0  0
   39.5581  -40.1657    7.8953 C   0  0  0  0  0  0  0  0  0  0  0  0
   40.2109  -38.8253    7.8545 C   0  0  1  0  0  0  0  0  0  0  0  0
   41.5660  -38.8526    8.1033 O   0  0  0  0  0  0  0  0  0  0  0  0
   40.0289  -38.1692    6.5045 C   0  0  0  0  0  0  0  0  0  0  0  0
   39.8430  -38.7905    5.2967 C   0  0  0  0  0  0  0  0  0  0  0  0
   39.7042  -37.9893    4.2172 C   0  0  0  0  0  0  0  0  0  0  0  0
   39.7612  -36.6421    4.4245 C   0  0  0  0  0  0  0  0  0  0  0  0
   40.0047  -36.5169    6.1024 S   0  0  0  0  0  0  0  0  0  0  0  0
   43.0900  -44.0002    9.3225 N   0  0  0  0  0  0  0  0  0  0  0  0
   43.9302  -44.2810    8.3471 C   0  0  0  0  0  0  0  0  0  0  0  0
   45.1640  -43.6706    8.1956 C   0  0  0  0  0  0  0  0  0  0  0  0
   46.0192  -43.9851    7.1691 C   0  0  0  0  0  0  0  0  0  0  0  0
   45.6641  -44.9366    6.2424 C   0  0  0  0  0  0  0  0  0  0  0  0
   44.4402  -45.5538    6.3770 C   0  0  0  0  0  0  0  0  0  0  0  0
   43.5870  -45.2310    7.4131 C   0  0  0  0  0  0  0  0  0  0  0  0
   42.3621  -45.8298    7.5737 C   0  0  0  0  0  0  0  0  0  0  0  0
   42.0259  -46.7036    6.7305 O   0  0  0  0  0  0  0  0  0  0  0  0
  1  2  1  0  0  0  0
  2  3  1  0  0  0  0
  3  4  1  0  0  0  0
  3 17  2  0  0  0  0
  4  5  1  0  0  0  0
  5  6  1  0  0  0  0
  6  7  2  0  0  0  0
  6  8  1  0  0  0  0
  8  9  1  0  0  0  0
 10  9  1  0  0  0  0
 10 11  1  6  0  0  0
 10 12  1  0  0  0  0
 12 13  2  0  0  0  0
 13 14  1  0  0  0  0
 14 15  2  0  0  0  0
 15 16  1  0  0  0  0
 16 12  1  0  0  0  0
 17 18  1  0  0  0  0
 18 19  2  0  0  0  0
 19 20  1  0  0  0  0
 20 21  2  0  0  0  0
 21 22  1  0  0  0  0
 22 23  2  0  0  0  0
 23 24  1  0  0  0  0
 23 18  1  0  0  0  0
 24 25  2  0  0  0  0
 24  2  1  0  0  0  0
M  END
>  <CHROM.1>
-86.33916091,-5.14302880,38.25124096,-142.53864961,65.64143639,178.53166323
-26.77684499,41.46560385,-42.15330295,7.81848981,1.09977183,-0.66414003,2.56626156

>  <Name>
design_5

>  <RI>
0

>  <Rbt.Current_Directory>
/home/ziqiaoxu/icml18-jtnn/VAEdesign

>  <Rbt.Executable>
rbdock ($Id: //depot/dev/client3/rdock/2013.1/src/exe/rbdock.cxx#4 $)

>  <Rbt.Library>
libRbt.so (2013.1, Build901 2013/11/27)

>  <Rbt.Parameter_File>
/export/apps/rDock/src/rDock_2013.1_src//data/scripts/dock.prm

>  <Rbt.Receptor>
/home/ziqiaoxu/icml18-jtnn/VAEdesign/targets/RdRp-SARS-CoV-2/pocket_docking.prm

>  <SCORE>
-22.5546

>  <SCORE.INTER>
-21.9011

>  <SCORE.INTER.CONST>
1

>  <SCORE.INTER.POLAR>
-1.2431

>  <SCORE.INTER.REPUL>
0

>  <SCORE.INTER.ROT>
6

>  <SCORE.INTER.VDW>
-29.0745

>  <SCORE.INTER.norm>
-0.876043

>  <SCORE.INTRA>
-0.655962

>  <SCORE.INTRA.DIHEDRAL>
3.15452

>  <SCORE.INTRA.DIHEDRAL.0>
4.95692

>  <SCORE.INTRA.POLAR>
0

>  <SCORE.INTRA.POLAR.0>
0

>  <SCORE.INTRA.REPUL>
0

>  <SCORE.INTRA.REPUL.0>
0

>  <SCORE.INTRA.VDW>
-2.23322

>  <SCORE.INTRA.VDW.0>
0.40743

>  <SCORE.INTRA.norm>
-0.0262385

>  <SCORE.RESTR>
0.00243382

>  <SCORE.RESTR.CAVITY>
0.00243382

>  <SCORE.RESTR.norm>
9.73529e-05

>  <SCORE.SYSTEM>
0

>  <SCORE.SYSTEM.CONST>
0

>  <SCORE.SYSTEM.DIHEDRAL>
0

>  <SCORE.SYSTEM.norm>
0

>  <SCORE.heavy>
25

>  <SCORE.norm>
-0.902184

$$$$
design_6
 OpenBabel05252019093D

 26 29  0  0  0  0  0  0  0  0999 V2000
   36.9200  -46.2845    7.7346 O   0  0  0  0  0  0  0  0  0  0  0  0
   37.6993  -47.0934    7.1446 C   0  0  0  0  0  0  0  0  0  0  0  0
   38.6824  -47.9420    7.8675 C   0  0  0  0  0  0  0  0  0  0  0  0
   39.8069  -47.0106    8.2699 C   0  0  0  0  0  0  0  0  0  0  0  0
   39.7177  -46.2661    9.4137 C   0  0  0  0  0  0  0  0  0  0  0  0
   41.1970  -45.4224    9.3919 S   0  0  0  0  0  0  0  0  0  0  0  0
   41.8474  -46.0840    7.8996 C   0  0  0  0  0  0  0  0  0  0  0  0
   43.0973  -45.7548    7.3304 N   0  0  0  0  0  0  0  0  0  0  0  0
   44.0355  -44.8721    7.8858 C   0  0  0  0  0  0  0  0  0  0  0  0
   45.1870  -44.5365    7.2499 C   0  0  0  0  0  0  0  0  0  0  0  0
   46.1030  -43.6523    7.8313 C   0  0  0  0  0  0  0  0  0  0  0  0
   45.8137  -43.1273    9.0642 C   0  0  0  0  0  0  0  0  0  0  0  0
   44.6309  -43.4975    9.6725 C   0  0  0  0  0  0  0  0  0  0  0  0
   43.7626  -44.3323    9.1274 N   0  0  0  0  0  0  0  0  0  0  0  0
   40.8817  -46.8831    7.5571 N   0  0  0  0  0  0  0  0  0  0  0  0
   37.6439  -47.2062    5.7294 N   0  0  0  0  0  0  0  0  0  0  0  0
   36.7002  -46.3973    4.9844 C   0  0  0  0  0  0  0  0  0  0  0  0
   36.7460  -44.9866    5.4271 C   0  0  0  0  0  0  0  0  0  0  0  0
   35.6721  -44.1923    5.5203 N   0  0  0  0  0  0  0  0  0  0  0  0
   36.0424  -42.9833    5.9463 C   0  0  0  0  0  0  0  0  0  0  0  0
   35.3140  -41.8149    6.2041 C   0  0  0  0  0  0  0  0  0  0  0  0
   35.9527  -40.6818    6.6448 C   0  0  0  0  0  0  0  0  0  0  0  0
   37.3164  -40.7167    6.8275 C   0  0  0  0  0  0  0  0  0  0  0  0
   38.0193  -41.8735    6.5697 C   0  0  0  0  0  0  0  0  0  0  0  0
   37.4074  -43.0254    6.1270 C   0  0  0  0  0  0  0  0  0  0  0  0
   37.8078  -44.2532    5.8044 N   0  0  0  0  0  0  0  0  0  0  0  0
  1  2  2  0  0  0  0
  2  3  1  0  0  0  0
  2 16  1  0  0  0  0
  3  4  1  0  0  0  0
  4  5  2  0  0  0  0
  5  6  1  0  0  0  0
  6  7  1  0  0  0  0
  7  8  1  0  0  0  0
  7 15  2  0  0  0  0
  8  9  1  0  0  0  0
  9 10  2  0  0  0  0
 10 11  1  0  0  0  0
 11 12  2  0  0  0  0
 12 13  1  0  0  0  0
 13 14  2  0  0  0  0
 14  9  1  0  0  0  0
 15  4  1  0  0  0  0
 16 17  1  0  0  0  0
 17 18  1  0  0  0  0
 18 19  2  0  0  0  0
 19 20  1  0  0  0  0
 20 21  2  0  0  0  0
 21 22  1  0  0  0  0
 22 23  2  0  0  0  0
 23 24  1  0  0  0  0
 24 25  2  0  0  0  0
 25 26  1  0  0  0  0
 25 20  1  0  0  0  0
 26 18  1  0  0  0  0
M  END
>  <CHROM.1>
-75.23344169,84.17982982,1.80438370,-176.02095004,47.20512682,-142.94241206
39.82619904,-44.73353087,7.37432307,3.03052392,-0.29209200,-0.08270476

>  <Name>
design_6

>  <RI>
0

>  <Rbt.Current_Directory>
/home/ziqiaoxu/icml18-jtnn/VAEdesign

>  <Rbt.Executable>
rbdock ($Id: //depot/dev/client3/rdock/2013.1/src/exe/rbdock.cxx#4 $)

>  <Rbt.Library>
libRbt.so (2013.1, Build901 2013/11/27)

>  <Rbt.Parameter_File>
/export/apps/rDock/src/rDock_2013.1_src//data/scripts/dock.prm

>  <Rbt.Receptor>
/home/ziqiaoxu/icml18-jtnn/VAEdesign/targets/RdRp-SARS-CoV-2/pocket_docking.prm

>  <SCORE>
-20.4711

>  <SCORE.INTER>
-20.0394

>  <SCORE.INTER.CONST>
1

>  <SCORE.INTER.POLAR>
-0.726857

>  <SCORE.INTER.REPUL>
0

>  <SCORE.INTER.ROT>
6

>  <SCORE.INTER.VDW>
-28.9681

>  <SCORE.INTER.norm>
-0.770747

>  <SCORE.INTRA>
-0.431723

>  <SCORE.INTRA.DIHEDRAL>
0.524973

>  <SCORE.INTRA.DIHEDRAL.0>
5.26386

>  <SCORE.INTRA.POLAR>
0

>  <SCORE.INTRA.POLAR.0>
0

>  <SCORE.INTRA.REPUL>
0

>  <SCORE.INTRA.REPUL.0>
0

>  <SCORE.INTRA.VDW>
-0.69421

>  <SCORE.INTRA.VDW.0>
-1.34885

>  <SCORE.INTRA.norm>
-0.0166047

>  <SCORE.RESTR>
0

>  <SCORE.RESTR.CAVITY>
0

>  <SCORE.RESTR.norm>
0

>  <SCORE.SYSTEM>
0

>  <SCORE.SYSTEM.CONST>
0

>  <SCORE.SYSTEM.DIHEDRAL>
0

>  <SCORE.SYSTEM.norm>
0

>  <SCORE.heavy>
26

>  <SCORE.norm>
-0.787352

$$$$
design_8
 OpenBabel05252019093D

 27 29  0  0  0  0  0  0  0  0999 V2000
   39.4723  -49.3083    6.3065 N   0  0  0  0  0  0  0  0  0  0  0  0
   39.7011  -48.4313    7.0467 C   0  0  0  0  0  0  0  0  0  0  0  0
   40.0070  -47.3568    7.9577 C   0  0  0  0  0  0  0  0  0  0  0  0
   39.1704  -47.0283    9.0060 C   0  0  0  0  0  0  0  0  0  0  0  0
   39.5028  -45.9884    9.8577 C   0  0  0  0  0  0  0  0  0  0  0  0
   40.6535  -45.2488    9.7069 C   0  0  0  0  0  0  0  0  0  0  0  0
   40.9364  -44.1587   10.6544 C   0  0  0  0  0  0  0  0  0  0  0  0
   39.9932  -43.0119   10.5257 C   0  0  0  0  0  0  0  0  0  0  0  0
   40.2927  -42.3091    9.2276 C   0  0  0  0  0  0  0  0  0  0  0  0
   40.6918  -42.9550    8.2473 O   0  0  0  0  0  0  0  0  0  0  0  0
   40.0968  -40.9326    9.2070 N   0  0  0  0  0  0  0  0  0  0  0  0
   40.3184  -40.1176    8.0746 C   0  0  0  0  0  0  0  0  0  0  0  0
   40.1552  -38.7686    8.0763 C   0  0  0  0  0  0  0  0  0  0  0  0
   40.3672  -38.0319    6.9188 C   0  0  0  0  0  0  0  0  0  0  0  0
   40.7461  -38.6229    5.7379 C   0  0  0  0  0  0  0  0  0  0  0  0
   40.9639  -37.8706    4.5501 N   0  0  0  0  0  0  0  0  0  0  0  0
   40.4183  -36.5366    4.4211 C   0  0  0  0  0  0  0  0  0  0  0  0
   39.6659  -36.5004    3.1083 C   0  0  0  0  0  0  0  0  0  0  0  0
   40.6560  -36.3188    1.9974 C   0  0  0  0  0  0  0  0  0  0  0  0
   41.4948  -37.5384    1.7379 C   0  0  0  0  0  0  0  0  0  0  0  0
   41.8650  -38.4512    3.1985 S   0  0  0  0  0  0  0  0  0  0  0  0
   41.5932  -39.9018    2.9348 O   0  0  0  0  0  0  0  0  0  0  0  0
   43.3301  -38.3414    3.5656 O   0  0  0  0  0  0  0  0  0  0  0  0
   40.9180  -39.9958    5.7170 C   0  0  0  0  0  0  0  0  0  0  0  0
   40.7068  -40.7131    6.8611 C   0  0  0  0  0  0  0  0  0  0  0  0
   41.4836  -45.5854    8.6551 C   0  0  0  0  0  0  0  0  0  0  0  0
   41.1650  -46.6180    7.7999 C   0  0  0  0  0  0  0  0  0  0  0  0
  1  2  3  0  0  0  0
  2  3  1  0  0  0  0
  3  4  2  0  0  0  0
  4  5  1  0  0  0  0
  5  6  2  0  0  0  0
  6  7  1  0  0  0  0
  6 26  1  0  0  0  0
  7  8  1  0  0  0  0
  8  9  1  0  0  0  0
  9 10  2  0  0  0  0
  9 11  1  0  0  0  0
 11 12  1  0  0  0  0
 12 13  2  0  0  0  0
 13 14  1  0  0  0  0
 14 15  2  0  0  0  0
 15 16  1  0  0  0  0
 15 24  1  0  0  0  0
 16 17  1  0  0  0  0
 17 18  1  0  0  0  0
 18 19  1  0  0  0  0
 19 20  1  0  0  0  0
 20 21  1  0  0  0  0
 21 22  2  0  0  0  0
 21 23  2  0  0  0  0
 21 16  1  0  0  0  0
 24 25  2  0  0  0  0
 25 12  1  0  0  0  0
 26 27  2  0  0  0  0
 27  3  1  0  0  0  0
M  END
>  <CHROM.1>
-68.21455040,-70.52568433,32.91068691,-178.29730403,-18.72594924,40.69639571
-41.46424699,6.45980582,-2.31144163,1.41793001,0.19808774

>  <Name>
design_8

>  <RI>
0

>  <Rbt.Current_Directory>
/home/ziqiaoxu/icml18-jtnn/VAEdesign

>  <Rbt.Executable>
rbdock ($Id: //depot/dev/client3/rdock/2013.1/src/exe/rbdock.cxx#4 $)

>  <Rbt.Library>
libRbt.so (2013.1, Build901 2013/11/27)

>  <Rbt.Parameter_File>
/export/apps/rDock/src/rDock_2013.1_src//data/scripts/dock.prm

>  <Rbt.Receptor>
/home/ziqiaoxu/icml18-jtnn/VAEdesign/targets/RdRp-SARS-CoV-2/pocket_docking.prm

>  <SCORE>
-26.0907

>  <SCORE.INTER>
-21.961

>  <SCORE.INTER.CONST>
1

>  <SCORE.INTER.POLAR>
-1.31454

>  <SCORE.INTER.REPUL>
0.213795

>  <SCORE.INTER.ROT>
5

>  <SCORE.INTER.VDW>
-28.9605

>  <SCORE.INTER.norm>
-0.813369

>  <SCORE.INTRA>
-4.13388

>  <SCORE.INTRA.DIHEDRAL>
-12.0647

>  <SCORE.INTRA.DIHEDRAL.0>
16.5842

>  <SCORE.INTRA.POLAR>
0

>  <SCORE.INTRA.POLAR.0>
0

>  <SCORE.INTRA.REPUL>
0

>  <SCORE.INTRA.REPUL.0>
0

>  <SCORE.INTRA.VDW>
1.89848

>  <SCORE.INTRA.VDW.0>
-0.0551745

>  <SCORE.INTRA.norm>
-0.153106

>  <SCORE.RESTR>
0.00413316

>  <SCORE.RESTR.CAVITY>
0.00413316

>  <SCORE.RESTR.norm>
0.00015308

>  <SCORE.SYSTEM>
0

>  <SCORE.SYSTEM.CONST>
0

>  <SCORE.SYSTEM.DIHEDRAL>
0

>  <SCORE.SYSTEM.norm>
0

>  <SCORE.heavy>
27

>  <SCORE.norm>
-0.966323

$$$$
design_15
 OpenBabel05252019093D

 26 28  0  0  0  0  0  0  0  0999 V2000
   47.1992  -43.8467    6.1564 C   0  0  0  0  0  0  0  0  0  0  0  0
   46.0187  -44.0291    6.9736 N   0  0  0  0  0  0  0  0  0  0  0  0
   45.0407  -44.9755    6.5764 C   0  0  0  0  0  0  0  0  0  0  0  0
   45.1948  -45.6454    5.5454 O   0  0  0  0  0  0  0  0  0  0  0  0
   43.8533  -45.1596    7.3884 C   0  0  0  0  0  0  0  0  0  0  0  0
   43.6897  -44.3922    8.5071 C   0  0  0  0  0  0  0  0  0  0  0  0
   42.5663  -44.5149    9.3077 C   0  0  0  0  0  0  0  0  0  0  0  0
   41.5883  -45.4252    8.9847 C   0  0  0  0  0  0  0  0  0  0  0  0
   40.3534  -45.6352    9.8488 C   0  0  0  0  0  0  0  0  0  0  0  0
   39.3146  -46.0786    9.0726 N   0  0  0  0  0  0  0  0  0  0  0  0
   38.2658  -46.5261    8.2900 C   0  0  0  0  0  0  0  0  0  0  0  0
   37.0986  -46.7212    8.7206 O   0  0  0  0  0  0  0  0  0  0  0  0
   38.5438  -46.7873    6.8815 N   0  0  0  0  0  0  0  0  0  0  0  0
   37.4707  -47.1963    6.0220 C   0  0  0  0  0  0  0  0  0  0  0  0
   37.0779  -46.2600    4.9478 C   0  0  0  0  0  0  0  0  0  0  0  0
   36.9434  -44.8603    5.4406 C   0  0  0  0  0  0  0  0  0  0  0  0
   35.8947  -44.0890    5.5238 N   0  0  0  0  0  0  0  0  0  0  0  0
   35.9951  -42.8526    5.9370 C   0  0  0  0  0  0  0  0  0  0  0  0
   34.9254  -41.9373    6.0446 C   0  0  0  0  0  0  0  0  0  0  0  0
   35.1808  -40.6635    6.4777 C   0  0  0  0  0  0  0  0  0  0  0  0
   36.4174  -40.1931    6.8227 C   0  0  0  0  0  0  0  0  0  0  0  0
   37.4585  -41.0906    6.7171 C   0  0  0  0  0  0  0  0  0  0  0  0
   37.2352  -42.4035    6.2763 C   0  0  0  0  0  0  0  0  0  0  0  0
   38.1809  -43.7800    5.9848 S   0  0  0  0  0  0  0  0  0  0  0  0
   41.7613  -46.2052    7.8440 C   0  0  0  0  0  0  0  0  0  0  0  0
   42.8987  -46.0721    7.0430 C   0  0  0  0  0  0  0  0  0  0  0  0
  1  2  1  0  0  0  0
  2  3  1  0  0  0  0
  3  4  2  0  0  0  0
  3  5  1  0  0  0  0
  5  6  2  0  0  0  0
  6  7  1  0  0  0  0
  7  8  2  0  0  0  0
  8  9  1  0  0  0  0
  8 25  1  0  0  0  0
  9 10  1  0  0  0  0
 10 11  1  0  0  0  0
 11 12  2  0  0  0  0
 11 13  1  0  0  0  0
 13 14  1  0  0  0  0
 14 15  1  0  0  0  0
 15 16  1  0  0  0  0
 16 17  2  0  0  0  0
 17 18  1  0  0  0  0
 18 19  2  0  0  0  0
 19 20  1  0  0  0  0
 20 21  2  0  0  0  0
 21 22  1  0  0  0  0
 22 23  2  0  0  0  0
 23 24  1  0  0  0  0
 23 18  1  0  0  0  0
 24 16  1  0  0  0  0
 25 26  2  0  0  0  0
 26  5  1  0  0  0  0
M  END
>  <CHROM.1>
1.42715136,152.58726359,176.63683296,113.99740209,-46.26142856,-114.86645471
39.82773295,-44.52733794,7.00311248,-0.22097777,-0.03733651,-0.30697963

>  <Name>
design_15

>  <RI>
0

>  <Rbt.Current_Directory>
/home/ziqiaoxu/icml18-jtnn/VAEdesign

>  <Rbt.Executable>
rbdock ($Id: //depot/dev/client3/rdock/2013.1/src/exe/rbdock.cxx#4 $)

>  <Rbt.Library>
libRbt.so (2013.1, Build901 2013/11/27)

>  <Rbt.Parameter_File>
/export/apps/rDock/src/rDock_2013.1_src//data/scripts/dock.prm

>  <Rbt.Receptor>
/home/ziqiaoxu/icml18-jtnn/VAEdesign/targets/RdRp-SARS-CoV-2/pocket_docking.prm

>  <SCORE>
-22.1896

>  <SCORE.INTER>
-20.7117

>  <SCORE.INTER.CONST>
1

>  <SCORE.INTER.POLAR>
-1.01786

>  <SCORE.INTER.REPUL>
0.0566075

>  <SCORE.INTER.ROT>
6

>  <SCORE.INTER.VDW>
-28.9341

>  <SCORE.INTER.norm>
-0.796606

>  <SCORE.INTRA>
-1.47788

>  <SCORE.INTRA.DIHEDRAL>
-1.32768

>  <SCORE.INTRA.DIHEDRAL.0>
5.37326

>  <SCORE.INTRA.POLAR>
0

>  <SCORE.INTRA.POLAR.0>
0

>  <SCORE.INTRA.REPUL>
0

>  <SCORE.INTRA.REPUL.0>
0

>  <SCORE.INTRA.VDW>
-0.814035

>  <SCORE.INTRA.VDW.0>
-1.22818

>  <SCORE.INTRA.norm>
-0.0568414

>  <SCORE.RESTR>
0

>  <SCORE.RESTR.CAVITY>
0

>  <SCORE.RESTR.norm>
0

>  <SCORE.SYSTEM>
0

>  <SCORE.SYSTEM.CONST>
0

>  <SCORE.SYSTEM.DIHEDRAL>
0

>  <SCORE.SYSTEM.norm>
0

>  <SCORE.heavy>
26

>  <SCORE.norm>
-0.853447

$$$$
design_19
 OpenBabel05252019093D

 24 27  0  0  0  0  0  0  0  0999 V2000
   41.2101  -44.5129   10.9958 C   0  0  0  0  0  0  0  0  0  0  0  0
   40.8311  -45.4191    9.8654 C   0  0  0  0  0  0  0  0  0  0  0  0
   39.6804  -46.1405    9.8774 N   0  0  0  0  0  0  0  0  0  0  0  0
   39.5814  -46.8791    8.7709 C   0  0  0  0  0  0  0  0  0  0  0  0
   38.6265  -47.7725    8.2992 C   0  0  0  0  0  0  0  0  0  0  0  0
   38.8193  -48.3913    7.0862 C   0  0  0  0  0  0  0  0  0  0  0  0
   39.9300  -48.1366    6.3506 C   0  0  0  0  0  0  0  0  0  0  0  0
   40.8915  -47.2418    6.8174 C   0  0  0  0  0  0  0  0  0  0  0  0
   40.7215  -46.6100    8.0288 C   0  0  0  0  0  0  0  0  0  0  0  0
   41.5284  -45.6761    8.7204 C   0  0  0  0  0  0  0  0  0  0  0  0
   42.7897  -45.1380    8.2531 C   0  0  0  0  0  0  0  0  0  0  0  0
   43.3614  -44.2231    8.9717 O   0  0  0  0  0  0  0  0  0  0  0  0
   43.4122  -45.5612    7.0712 N   0  0  0  0  0  0  0  0  0  0  0  0
   44.6947  -44.9033    6.7426 C   0  0  0  0  0  0  0  0  0  0  0  0
   45.1107  -45.3266    5.3808 C   0  0  0  0  0  0  0  0  0  0  0  0
   46.3151  -45.7754    4.9869 N   0  0  0  0  0  0  0  0  0  0  0  0
   46.3014  -46.0419    3.7170 O   0  0  0  0  0  0  0  0  0  0  0  0
   45.1003  -45.7839    3.2209 C   0  0  0  0  0  0  0  0  0  0  0  0
   44.6779  -45.9529    1.8269 C   0  0  0  0  0  0  0  0  0  0  0  0
   45.4187  -46.4100    0.7773 C   0  0  0  0  0  0  0  0  0  0  0  0
   44.8218  -46.4823   -0.4168 C   0  0  0  0  0  0  0  0  0  0  0  0
   43.5121  -46.0918   -0.4950 C   0  0  0  0  0  0  0  0  0  0  0  0
   43.1622  -45.6343    1.1195 S   0  0  0  0  0  0  0  0  0  0  0  0
   44.3725  -45.3428    4.2574 N   0  0  0  0  0  0  0  0  0  0  0  0
  1  2  1  0  0  0  0
  2  3  1  0  0  0  0
  3  4  1  0  0  0  0
  4  5  2  0  0  0  0
  5  6  1  0  0  0  0
  6  7  2  0  0  0  0
  7  8  1  0  0  0  0
  8  9  2  0  0  0  0
  9 10  1  0  0  0  0
  9  4  1  0  0  0  0
 10 11  1  0  0  0  0
 10  2  2  0  0  0  0
 11 12  2  0  0  0  0
 11 13  1  0  0  0  0
 13 14  1  0  0  0  0
 14 15  1  0  0  0  0
 15 16  2  0  0  0  0
 16 17  1  0  0  0  0
 17 18  1  0  0  0  0
 18 19  1  0  0  0  0
 18 24  2  0  0  0  0
 19 20  2  0  0  0  0
 20 21  1  0  0  0  0
 21 22  2  0  0  0  0
 22 23  1  0  0  0  0
 23 19  1  0  0  0  0
 24 15  1  0  0  0  0
M  END
>  <CHROM.1>
-3.29507493,-172.08927064,-131.70750478,0.46085378,42.76594238,-46.00904787
5.62156292,-2.12226157,-0.42410371,-1.79121426

>  <Name>
design_19

>  <RI>
0

>  <Rbt.Current_Directory>
/home/ziqiaoxu/icml18-jtnn/VAEdesign

>  <Rbt.Executable>
rbdock ($Id: //depot/dev/client3/rdock/2013.1/src/exe/rbdock.cxx#4 $)

>  <Rbt.Library>
libRbt.so (2013.1, Build901 2013/11/27)

>  <Rbt.Parameter_File>
/export/apps/rDock/src/rDock_2013.1_src//data/scripts/dock.prm

>  <Rbt.Receptor>
/home/ziqiaoxu/icml18-jtnn/VAEdesign/targets/RdRp-SARS-CoV-2/pocket_docking.prm

>  <SCORE>
-22.6967

>  <SCORE.INTER>
-22.9437

>  <SCORE.INTER.CONST>
1

>  <SCORE.INTER.POLAR>
-1.0198

>  <SCORE.INTER.REPUL>
0.00769561

>  <SCORE.INTER.ROT>
4

>  <SCORE.INTER.VDW>
-28.9149

>  <SCORE.INTER.norm>
-0.955989

>  <SCORE.INTRA>
0.247009

>  <SCORE.INTRA.DIHEDRAL>
-0.300277

>  <SCORE.INTRA.DIHEDRAL.0>
2.8749

>  <SCORE.INTRA.POLAR>
0

>  <SCORE.INTRA.POLAR.0>
0

>  <SCORE.INTRA.REPUL>
0

>  <SCORE.INTRA.REPUL.0>
0

>  <SCORE.INTRA.VDW>
0.397147

>  <SCORE.INTRA.VDW.0>
-1.64029

>  <SCORE.INTRA.norm>
0.010292

>  <SCORE.RESTR>
0

>  <SCORE.RESTR.CAVITY>
0

>  <SCORE.RESTR.norm>
0

>  <SCORE.SYSTEM>
0

>  <SCORE.SYSTEM.CONST>
0

>  <SCORE.SYSTEM.DIHEDRAL>
0

>  <SCORE.SYSTEM.norm>
0

>  <SCORE.heavy>
24

>  <SCORE.norm>
-0.945697

$$$$
design_1
 OpenBabel05252019093D

 27 29  0  0  0  0  0  0  0  0999 V2000
   42.4446  -34.8927    3.3963 N   0  0  0  0  0  0  0  0  0  0  0  0
   42.2876  -36.2474    3.0255 C   0  0  0  0  0  0  0  0  0  0  0  0
   43.0815  -37.1527    3.3409 O   0  0  0  0  0  0  0  0  0  0  0  0
   41.0969  -36.5890    2.2109 C   0  0  0  0  0  0  0  0  0  0  0  0
   39.8665  -36.3218    3.0131 C   0  0  0  0  0  0  0  0  0  0  0  0
   39.7855  -37.1123    4.2504 C   0  0  0  0  0  0  0  0  0  0  0  0
   40.0333  -36.4854    5.4564 C   0  0  0  0  0  0  0  0  0  0  0  0
   39.9863  -37.1181    6.6535 C   0  0  0  0  0  0  0  0  0  0  0  0
   39.6676  -38.4914    6.6751 C   0  0  0  0  0  0  0  0  0  0  0  0
   39.5883  -39.1376    7.9195 N   0  0  0  0  0  0  0  0  0  0  0  0
   39.4709  -40.5435    8.0584 C   0  0  0  0  0  0  0  0  0  0  0  0
   39.4477  -41.3441    7.0707 O   0  0  0  0  0  0  0  0  0  0  0  0
   39.3759  -41.0559    9.3873 N   0  0  0  0  0  0  0  0  0  0  0  0
   39.2465  -42.4680    9.5973 C   0  0  0  0  0  0  0  0  0  0  0  0
   40.2101  -43.0843   10.5441 C   0  0  0  0  0  0  0  0  0  0  0  0
   41.3191  -43.8483    9.8627 C   0  0  0  0  0  0  0  0  0  0  0  0
   40.7620  -45.0100    9.1518 C   0  0  0  0  0  0  0  0  0  0  0  0
   41.2406  -45.4662    7.9598 N   0  0  0  0  0  0  0  0  0  0  0  0
   40.5271  -46.5437    7.5747 C   0  0  0  0  0  0  0  0  0  0  0  0
   40.6086  -47.3634    6.4590 C   0  0  0  0  0  0  0  0  0  0  0  0
   39.7490  -48.4255    6.2857 C   0  0  0  0  0  0  0  0  0  0  0  0
   38.8113  -48.6248    7.2764 C   0  0  0  0  0  0  0  0  0  0  0  0
   38.7008  -47.8378    8.3905 C   0  0  0  0  0  0  0  0  0  0  0  0
   39.5804  -46.7663    8.5489 C   0  0  0  0  0  0  0  0  0  0  0  0
   39.7474  -45.8257    9.4860 N   0  0  0  0  0  0  0  0  0  0  0  0
   39.4181  -39.1321    5.4992 C   0  0  0  0  0  0  0  0  0  0  0  0
   39.4746  -38.4550    4.2850 C   0  0  0  0  0  0  0  0  0  0  0  0
  1  2  1  0  0  0  0
  2  3  2  0  0  0  0
  2  4  1  0  0  0  0
  4  5  1  0  0  0  0
  5  6  1  0  0  0  0
  6  7  2  0  0  0  0
  7  8  1  0  0  0  0
  8  9  2  0  0  0  0
  9 10  1  0  0  0  0
  9 26  1  0  0  0  0
 10 11  1  0  0  0  0
 11 12  2  0  0  0  0
 11 13  1  0  0  0  0
 13 14  1  0  0  0  0
 14 15  1  0  0  0  0
 15 16  1  0  0  0  0
 16 17  1  0  0  0  0
 17 18  2  0  0  0  0
 18 19  1  0  0  0  0
 19 20  2  0  0  0  0
 20 21  1  0  0  0  0
 21 22  2  0  0  0  0
 22 23  1  0  0  0  0
 23 24  2  0  0  0  0
 24 25  1  0  0  0  0
 24 19  1  0  0  0  0
 25 17  1  0  0  0  0
 26 27  2  0  0  0  0
 27  6  1  0  0  0  0
M  END
>  <CHROM.1>
-64.03713417,-60.62508700,105.12235220,-170.46157996,128.02486058,-103.30690399
-65.21379989,144.06689080,40.23189175,-41.43663910,6.71700241,-1.11784802
-1.33618599,-3.10819685

>  <Name>
design_1

>  <RI>
0

>  <Rbt.Current_Directory>
/home/ziqiaoxu/icml18-jtnn/VAEdesign

>  <Rbt.Executable>
rbdock ($Id: //depot/dev/client3/rdock/2013.1/src/exe/rbdock.cxx#4 $)

>  <Rbt.Library>
libRbt.so (2013.1, Build901 2013/11/27)

>  <Rbt.Parameter_File>
/export/apps/rDock/src/rDock_2013.1_src//data/scripts/dock.prm

>  <Rbt.Receptor>
/home/ziqiaoxu/icml18-jtnn/VAEdesign/targets/RdRp-SARS-CoV-2/pocket_docking.prm

>  <SCORE>
-25.86

>  <SCORE.INTER>
-25.1102

>  <SCORE.INTER.CONST>
1

>  <SCORE.INTER.POLAR>
-2.8285

>  <SCORE.INTER.REPUL>
0

>  <SCORE.INTER.ROT>
8

>  <SCORE.INTER.VDW>
-28.8933

>  <SCORE.INTER.norm>
-0.930007

>  <SCORE.INTRA>
-1.12506

>  <SCORE.INTRA.DIHEDRAL>
2.5853

>  <SCORE.INTRA.DIHEDRAL.0>
6.8288

>  <SCORE.INTRA.POLAR>
0

>  <SCORE.INTRA.POLAR.0>
0

>  <SCORE.INTRA.REPUL>
0

>  <SCORE.INTRA.REPUL.0>
0

>  <SCORE.INTRA.VDW>
-2.4177

>  <SCORE.INTRA.VDW.0>
1.02462

>  <SCORE.INTRA.norm>
-0.0416687

>  <SCORE.RESTR>
0.375288

>  <SCORE.RESTR.CAVITY>
0.375288

>  <SCORE.RESTR.norm>
0.0138996

>  <SCORE.SYSTEM>
0

>  <SCORE.SYSTEM.CONST>
0

>  <SCORE.SYSTEM.DIHEDRAL>
0

>  <SCORE.SYSTEM.norm>
0

>  <SCORE.heavy>
27

>  <SCORE.norm>
-0.957776

$$$$
design_1
 OpenBabel05252019093D

 24 26  0  0  0  0  0  0  0  0999 V2000
   34.1780  -40.9124    6.2518 C   0  0  0  0  0  0  0  0  0  0  0  0
   35.5072  -41.5816    6.2624 C   0  0  0  0  0  0  0  0  0  0  0  0
   36.6416  -40.9006    6.5876 C   0  0  0  0  0  0  0  0  0  0  0  0
   37.8714  -41.5336    6.6019 C   0  0  0  0  0  0  0  0  0  0  0  0
   37.9940  -42.8572    6.2911 C   0  0  0  0  0  0  0  0  0  0  0  0
   36.8352  -43.5706    5.9535 C   0  0  0  0  0  0  0  0  0  0  0  0
   36.8971  -45.0008    5.6130 C   0  0  0  0  0  0  0  0  0  0  0  0
   37.6277  -45.8289    6.5362 N   0  0  0  0  0  0  0  0  0  0  0  0
   37.8533  -47.2092    6.4357 C   0  0  0  0  0  0  0  0  0  0  0  0
   37.3531  -47.8223    5.4308 O   0  0  0  0  0  0  0  0  0  0  0  0
   38.6147  -48.0075    7.3897 C   0  0  0  0  0  0  0  0  0  0  0  0
   39.5606  -47.0694    8.1069 C   0  0  0  0  0  0  0  0  0  0  0  0
   40.7587  -46.6651    7.7231 N   0  0  0  0  0  0  0  0  0  0  0  0
   41.4585  -45.8874    8.4672 C   0  0  0  0  0  0  0  0  0  0  0  0
   42.7904  -45.3726    8.0730 C   0  0  0  0  0  0  0  0  0  0  0  0
   43.3583  -45.7483    6.8804 C   0  0  0  0  0  0  0  0  0  0  0  0
   44.6317  -45.2951    6.5121 C   0  0  0  0  0  0  0  0  0  0  0  0
   45.3119  -44.4621    7.3683 C   0  0  0  0  0  0  0  0  0  0  0  0
   44.7606  -44.0818    8.5555 C   0  0  0  0  0  0  0  0  0  0  0  0
   45.4718  -43.1977    9.5042 C   0  0  0  0  0  0  0  0  0  0  0  0
   43.4978  -44.5377    8.9076 C   0  0  0  0  0  0  0  0  0  0  0  0
   40.9008  -45.4977    9.6747 C   0  0  0  0  0  0  0  0  0  0  0  0
   39.3963  -46.3074    9.6182 S   0  0  0  0  0  0  0  0  0  0  0  0
   35.6054  -42.9143    5.9457 C   0  0  0  0  0  0  0  0  0  0  0  0
  1  2  1  0  0  0  0
  2  3  2  0  0  0  0
  3  4  1  0  0  0  0
  4  5  2  0  0  0  0
  5  6  1  0  0  0  0
  6  7  1  0  0  0  0
  6 24  2  0  0  0  0
  7  8  1  0  0  0  0
  8  9  1  0  0  0  0
  9 10  2  0  0  0  0
  9 11  1  0  0  0  0
 11 12  1  0  0  0  0
 12 13  2  0  0  0  0
 13 14  1  0  0  0  0
 14 15  1  0  0  0  0
 14 22  2  0  0  0  0
 15 16  2  0  0  0  0
 16 17  1  0  0  0  0
 17 18  2  0  0  0  0
 18 19  1  0  0  0  0
 19 20  1  0  0  0  0
 19 21  2  0  0  0  0
 21 15  1  0  0  0  0
 22 23  1  0  0  0  0
 23 12  1  0  0  0  0
 24  2  1  0  0  0  0
M  END
>  <CHROM.1>
49.29360843,-178.95289181,-23.69136534,-84.79729007,-1.88276979,39.72167027
-44.78216687,7.39400772,-2.88464293,0.24728251,3.06390179

>  <Name>
design_1

>  <RI>
0

>  <Rbt.Current_Directory>
/home/ziqiaoxu/icml18-jtnn/VAEdesign

>  <Rbt.Executable>
rbdock ($Id: //depot/dev/client3/rdock/2013.1/src/exe/rbdock.cxx#4 $)

>  <Rbt.Library>
libRbt.so (2013.1, Build901 2013/11/27)

>  <Rbt.Parameter_File>
/export/apps/rDock/src/rDock_2013.1_src//data/scripts/dock.prm

>  <Rbt.Receptor>
/home/ziqiaoxu/icml18-jtnn/VAEdesign/targets/RdRp-SARS-CoV-2/pocket_docking.prm

>  <SCORE>
-23.7343

>  <SCORE.INTER>
-18.389

>  <SCORE.INTER.CONST>
1

>  <SCORE.INTER.POLAR>
0

>  <SCORE.INTER.REPUL>
0

>  <SCORE.INTER.ROT>
5

>  <SCORE.INTER.VDW>
-28.789

>  <SCORE.INTER.norm>
-0.766208

>  <SCORE.INTRA>
-5.34533

>  <SCORE.INTRA.DIHEDRAL>
-12.5966

>  <SCORE.INTRA.DIHEDRAL.0>
17.291

>  <SCORE.INTRA.POLAR>
0

>  <SCORE.INTRA.POLAR.0>
0

>  <SCORE.INTRA.REPUL>
0

>  <SCORE.INTRA.REPUL.0>
0

>  <SCORE.INTRA.VDW>
0.952965

>  <SCORE.INTRA.VDW.0>
-2.14918

>  <SCORE.INTRA.norm>
-0.222722

>  <SCORE.RESTR>
0

>  <SCORE.RESTR.CAVITY>
0

>  <SCORE.RESTR.norm>
0

>  <SCORE.SYSTEM>
0

>  <SCORE.SYSTEM.CONST>
0

>  <SCORE.SYSTEM.DIHEDRAL>
0

>  <SCORE.SYSTEM.norm>
0

>  <SCORE.heavy>
24

>  <SCORE.norm>
-0.98893

$$$$
design_8
 OpenBabel05252019093D

 25 28  0  0  0  0  0  0  0  0999 V2000
   37.0632  -46.3651    7.6267 O   0  0  0  0  0  0  0  0  0  0  0  0
   37.9293  -47.1123    7.0710 C   0  0  0  0  0  0  0  0  0  0  0  0
   38.8798  -47.8924    7.8886 C   0  0  0  0  0  0  0  0  0  0  0  0
   39.8321  -46.9121    8.5092 C   0  0  0  0  0  0  0  0  0  0  0  0
   39.4917  -46.3169    9.7279 C   0  0  0  0  0  0  0  0  0  0  0  0
   40.8282  -45.3130   10.0089 S   0  0  0  0  0  0  0  0  0  0  0  0
   41.7368  -45.6812    8.6140 C   0  0  0  0  0  0  0  0  0  0  0  0
   43.0628  -45.1621    8.1979 C   0  0  0  0  0  0  0  0  0  0  0  0
   43.6579  -45.5943    7.0591 C   0  0  0  0  0  0  0  0  0  0  0  0
   44.8952  -45.1035    6.7001 C   0  0  0  0  0  0  0  0  0  0  0  0
   45.5064  -44.1850    7.4983 C   0  0  0  0  0  0  0  0  0  0  0  0
   44.8613  -43.7697    8.6558 C   0  0  0  0  0  0  0  0  0  0  0  0
   43.6578  -44.2569    8.9918 N   0  0  0  0  0  0  0  0  0  0  0  0
   40.9650  -46.5569    8.0019 N   0  0  0  0  0  0  0  0  0  0  0  0
   37.9416  -47.1554    5.6539 N   0  0  0  0  0  0  0  0  0  0  0  0
   37.0055  -46.3783    4.9045 C   0  0  0  0  0  0  0  0  0  0  0  0
   37.0138  -44.9549    5.3698 C   0  0  0  0  0  0  0  0  0  0  0  0
   38.0573  -44.1787    5.6972 N   0  0  0  0  0  0  0  0  0  0  0  0
   37.6231  -42.9605    6.0809 C   0  0  0  0  0  0  0  0  0  0  0  0
   38.2290  -41.7915    6.5184 C   0  0  0  0  0  0  0  0  0  0  0  0
   37.5011  -40.6724    6.8570 C   0  0  0  0  0  0  0  0  0  0  0  0
   36.1170  -40.6687    6.7732 C   0  0  0  0  0  0  0  0  0  0  0  0
   35.5039  -41.8262    6.3402 C   0  0  0  0  0  0  0  0  0  0  0  0
   36.2469  -42.9542    5.9990 C   0  0  0  0  0  0  0  0  0  0  0  0
   35.9052  -44.1800    5.5626 N   0  0  0  0  0  0  0  0  0  0  0  0
  1  2  2  0  0  0  0
  2  3  1  0  0  0  0
  2 15  1  0  0  0  0
  3  4  1  0  0  0  0
  4  5  2  0  0  0  0
  5  6  1  0  0  0  0
  6  7  1  0  0  0  0
  7  8  1  0  0  0  0
  7 14  2  0  0  0  0
  8  9  2  0  0  0  0
  9 10  1  0  0  0  0
 10 11  2  0  0  0  0
 11 12  1  0  0  0  0
 12 13  2  0  0  0  0
 13  8  1  0  0  0  0
 14  4  1  0  0  0  0
 15 16  1  0  0  0  0
 16 17  1  0  0  0  0
 17 18  2  0  0  0  0
 18 19  1  0  0  0  0
 19 20  2  0  0  0  0
 20 21  1  0  0  0  0
 21 22  2  0  0  0  0
 22 23  1  0  0  0  0
 23 24  2  0  0  0  0
 24 25  1  0  0  0  0
 24 19  1  0  0  0  0
 25 17  1  0  0  0  0
M  END
>  <CHROM.1>
-70.10860630,87.23114052,178.37126254,50.50467611,41.58906926,39.60791717
-44.78625846,7.34819919,2.88813050,-0.27991700,-0.13625853

>  <Name>
design_8

>  <RI>
0

>  <Rbt.Current_Directory>
/home/ziqiaoxu/icml18-jtnn/VAEdesign

>  <Rbt.Executable>
rbdock ($Id: //depot/dev/client3/rdock/2013.1/src/exe/rbdock.cxx#4 $)

>  <Rbt.Library>
libRbt.so (2013.1, Build901 2013/11/27)

>  <Rbt.Parameter_File>
/export/apps/rDock/src/rDock_2013.1_src//data/scripts/dock.prm

>  <Rbt.Receptor>
/home/ziqiaoxu/icml18-jtnn/VAEdesign/targets/RdRp-SARS-CoV-2/pocket_docking.prm

>  <SCORE>
-19.799

>  <SCORE.INTER>
-20.0913

>  <SCORE.INTER.CONST>
1

>  <SCORE.INTER.POLAR>
-0.501391

>  <SCORE.INTER.REPUL>
0

>  <SCORE.INTER.ROT>
5

>  <SCORE.INTER.VDW>
-28.7865

>  <SCORE.INTER.norm>
-0.80365

>  <SCORE.INTRA>
0.29222

>  <SCORE.INTRA.DIHEDRAL>
0.723065

>  <SCORE.INTRA.DIHEDRAL.0>
4.70179

>  <SCORE.INTRA.POLAR>
0

>  <SCORE.INTRA.POLAR.0>
0

>  <SCORE.INTRA.REPUL>
0

>  <SCORE.INTRA.REPUL.0>
0

>  <SCORE.INTRA.VDW>
-0.0693125

>  <SCORE.INTRA.VDW.0>
-1.99565

>  <SCORE.INTRA.norm>
0.0116888

>  <SCORE.RESTR>
0

>  <SCORE.RESTR.CAVITY>
0

>  <SCORE.RESTR.norm>
0

>  <SCORE.SYSTEM>
0

>  <SCORE.SYSTEM.CONST>
0

>  <SCORE.SYSTEM.DIHEDRAL>
0

>  <SCORE.SYSTEM.norm>
0

>  <SCORE.heavy>
25

>  <SCORE.norm>
-0.791962

$$$$
design_16
 OpenBabel05252019093D

 26 28  0  0  0  0  0  0  0  0999 V2000
   46.8264  -46.2072   11.3586 N   0  0  0  0  0  0  0  0  0  0  0  0
   45.7745  -45.8048   12.1690 C   0  0  0  0  0  0  0  0  0  0  0  0
   44.8848  -45.5276   12.8900 O   0  0  0  0  0  0  0  0  0  0  0  0
   45.6878  -44.3299   11.3403 N   0  0  0  0  0  0  0  0  0  0  0  0
   45.5943  -43.2311   10.7495 C   0  0  0  0  0  0  0  0  0  0  0  0
   46.2480  -43.3782    9.4821 C   0  0  0  0  0  0  0  0  0  0  0  0
   47.4383  -43.1628    9.1894 C   0  0  0  0  0  0  0  0  0  0  0  0
   47.9153  -43.3159    7.7637 C   0  0  0  0  0  0  0  0  0  0  0  0
   46.9840  -43.7088    6.9558 C   0  0  0  0  0  0  0  0  0  0  0  0
   45.7210  -43.9121    7.2777 C   0  0  0  0  0  0  0  0  0  0  0  0
   44.9250  -44.5901    6.0602 C   0  0  0  0  0  0  0  0  0  0  0  0
   45.2069  -43.9750    5.0133 O   0  0  0  0  0  0  0  0  0  0  0  0
   44.3186  -45.6610    6.5599 N   0  0  0  0  0  0  0  0  0  0  0  0
   43.0611  -45.4856    7.1403 C   0  0  0  0  0  0  0  0  0  0  0  0
   42.3261  -45.2654    8.2263 C   0  0  0  0  0  0  0  0  0  0  0  0
   42.4653  -44.6166    9.3666 C   0  0  0  0  0  0  0  0  0  0  0  0
   41.5972  -44.6060   10.3978 C   0  0  0  0  0  0  0  0  0  0  0  0
   41.7405  -44.0197   11.5372 O   0  0  0  0  0  0  0  0  0  0  0  0
   40.3903  -45.2608   10.3266 N   0  0  0  0  0  0  0  0  0  0  0  0
   40.1552  -45.9682    9.1711 C   0  0  0  0  0  0  0  0  0  0  0  0
   39.0972  -46.8914    9.0874 C   0  0  0  0  0  0  0  0  0  0  0  0
   39.0067  -47.7950    8.0863 C   0  0  0  0  0  0  0  0  0  0  0  0
   39.9748  -47.8374    7.0844 C   0  0  0  0  0  0  0  0  0  0  0  0
   40.9669  -46.8996    7.1672 C   0  0  0  0  0  0  0  0  0  0  0  0
   41.0338  -45.9984    8.1655 C   0  0  0  0  0  0  0  0  0  0  0  0
   45.2795  -43.7627    8.5188 C   0  0  0  0  0  0  0  0  0  0  0  0
  1  2  1  0  0  0  0
  2  3  2  0  0  0  0
  2  4  1  0  0  0  0
  4  5  1  0  0  0  0
  5  6  1  0  0  0  0
  6  7  2  0  0  0  0
  7  8  1  0  0  0  0
  8  9  2  0  0  0  0
  9 10  1  0  0  0  0
 10 11  1  0  0  0  0
 10 26  2  0  0  0  0
 11 12  2  0  0  0  0
 11 13  1  0  0  0  0
 13 14  1  0  0  0  0
 14 15  1  0  0  0  0
 15 16  2  0  0  0  0
 16 17  1  0  0  0  0
 17 18  2  0  0  0  0
 17 19  1  0  0  0  0
 19 20  1  0  0  0  0
 20 21  2  0  0  0  0
 21 22  1  0  0  0  0
 22 23  2  0  0  0  0
 23 24  1  0  0  0  0
 24 25  2  0  0  0  0
 25 15  1  0  0  0  0
 25 20  1  0  0  0  0
 26  6  1  0  0  0  0
M  END
>  <CHROM.1>
-158.31629441,-90.61368777,-46.55910934,86.41636194,-93.27071815,31.48526967
43.67820117,-45.04498986,8.94487121,0.07914032,0.37176568,1.57175706

>  <Name>
design_16

>  <RI>
0

>  <Rbt.Current_Directory>
/home/ziqiaoxu/icml18-jtnn/VAEdesign

>  <Rbt.Executable>
rbdock ($Id: //depot/dev/client3/rdock/2013.1/src/exe/rbdock.cxx#4 $)

>  <Rbt.Library>
libRbt.so (2013.1, Build901 2013/11/27)

>  <Rbt.Parameter_File>
/export/apps/rDock/src/rDock_2013.1_src//data/scripts/dock.prm

>  <Rbt.Receptor>
/home/ziqiaoxu/icml18-jtnn/VAEdesign/targets/RdRp-SARS-CoV-2/pocket_docking.prm

>  <SCORE>
-30.5645

>  <SCORE.INTER>
-26.8654

>  <SCORE.INTER.CONST>
1

>  <SCORE.INTER.POLAR>
-3.77772

>  <SCORE.INTER.REPUL>
0.664179

>  <SCORE.INTER.ROT>
6

>  <SCORE.INTER.VDW>
-28.742

>  <SCORE.INTER.norm>
-1.03328

>  <SCORE.INTRA>
-3.69909

>  <SCORE.INTRA.DIHEDRAL>
-2.18598

>  <SCORE.INTRA.DIHEDRAL.0>
11.6028

>  <SCORE.INTRA.POLAR>
0

>  <SCORE.INTRA.POLAR.0>
0

>  <SCORE.INTRA.REPUL>
0

>  <SCORE.INTRA.REPUL.0>
0

>  <SCORE.INTRA.VDW>
-2.6061

>  <SCORE.INTRA.VDW.0>
0.176729

>  <SCORE.INTRA.norm>
-0.142273

>  <SCORE.RESTR>
0

>  <SCORE.RESTR.CAVITY>
0

>  <SCORE.RESTR.norm>
0

>  <SCORE.SYSTEM>
0

>  <SCORE.SYSTEM.CONST>
0

>  <SCORE.SYSTEM.DIHEDRAL>
0

>  <SCORE.SYSTEM.norm>
0

>  <SCORE.heavy>
26

>  <SCORE.norm>
-1.17556

$$$$
design_10
 OpenBabel05252019093D

 25 28  0  0  0  0  0  0  0  0999 V2000
   39.9855  -46.3116    4.9001 O   0  0  0  0  0  0  0  0  0  0  0  0
   39.3328  -47.0067    5.7160 C   0  0  0  0  0  0  0  0  0  0  0  0
   40.0255  -47.7944    6.7639 C   0  0  0  0  0  0  0  0  0  0  0  0
   40.1081  -47.0076    8.0226 C   0  0  0  0  0  0  0  0  0  0  0  0
   39.2135  -47.0320    9.0693 C   0  0  0  0  0  0  0  0  0  0  0  0
   39.7009  -46.1610    9.9817 N   0  0  0  0  0  0  0  0  0  0  0  0
   40.8463  -45.6043    9.5501 C   0  0  0  0  0  0  0  0  0  0  0  0
   41.7152  -44.6687   10.1109 C   0  0  0  0  0  0  0  0  0  0  0  0
   42.8427  -44.2742    9.4213 C   0  0  0  0  0  0  0  0  0  0  0  0
   43.1574  -44.7792    8.1649 C   0  0  0  0  0  0  0  0  0  0  0  0
   42.2796  -45.7034    7.6352 C   0  0  0  0  0  0  0  0  0  0  0  0
   41.1452  -46.1165    8.3009 C   0  0  0  0  0  0  0  0  0  0  0  0
   37.9371  -47.0385    5.6357 N   0  0  0  0  0  0  0  0  0  0  0  0
   37.2256  -46.2731    4.6141 C   0  0  0  0  0  0  0  0  0  0  0  0
   37.0629  -44.8983    5.1416 C   0  0  0  0  0  0  0  0  0  0  0  0
   37.9484  -44.0389    5.6467 N   0  0  0  0  0  0  0  0  0  0  0  0
   37.3208  -42.9490    5.9796 O   0  0  0  0  0  0  0  0  0  0  0  0
   36.0396  -43.0517    5.7126 C   0  0  0  0  0  0  0  0  0  0  0  0
   34.9843  -42.0064    5.9522 C   0  0  0  0  0  0  0  0  0  0  0  0
   35.1656  -41.3537    7.2917 C   0  0  0  0  0  0  0  0  0  0  0  0
   34.2305  -40.1718    7.4025 C   0  0  0  0  0  0  0  0  0  0  0  0
   34.7163  -39.1041    6.4698 C   0  0  0  0  0  0  0  0  0  0  0  0
   35.3003  -39.6251    5.2039 C   0  0  0  0  0  0  0  0  0  0  0  0
   34.9128  -41.0091    4.8236 C   0  0  0  0  0  0  0  0  0  0  0  0
   35.8692  -44.2775    5.1842 N   0  0  0  0  0  0  0  0  0  0  0  0
  1  2  2  0  0  0  0
  2  3  1  0  0  0  0
  2 13  1  0  0  0  0
  3  4  1  0  0  0  0
  4  5  2  0  0  0  0
  5  6  1  0  0  0  0
  6  7  1  0  0  0  0
  7  8  2  0  0  0  0
  8  9  1  0  0  0  0
  9 10  2  0  0  0  0
 10 11  1  0  0  0  0
 11 12  2  0  0  0  0
 12  4  1  0  0  0  0
 12  7  1  0  0  0  0
 13 14  1  0  0  0  0
 14 15  1  0  0  0  0
 15 16  2  0  0  0  0
 16 17  1  0  0  0  0
 17 18  1  0  0  0  0
 18 19  1  0  0  0  0
 18 25  2  0  0  0  0
 19 20  1  0  0  0  0
 20 21  1  0  0  0  0
 21 22  1  0  0  0  0
 22 23  1  0  0  0  0
 23 24  1  0  0  0  0
 24 19  1  0  0  0  0
 25 15  1  0  0  0  0
M  END
>  <CHROM.1>
93.76837674,92.88188290,-84.30888773,52.00825906,-42.87465098,38.29793873
-44.29477098,6.86835611,0.37802916,0.66369079,-2.57265763

>  <Name>
design_10

>  <RI>
0

>  <Rbt.Current_Directory>
/home/ziqiaoxu/icml18-jtnn/VAEdesign

>  <Rbt.Executable>
rbdock ($Id: //depot/dev/client3/rdock/2013.1/src/exe/rbdock.cxx#4 $)

>  <Rbt.Library>
libRbt.so (2013.1, Build901 2013/11/27)

>  <Rbt.Parameter_File>
/export/apps/rDock/src/rDock_2013.1_src//data/scripts/dock.prm

>  <Rbt.Receptor>
/home/ziqiaoxu/icml18-jtnn/VAEdesign/targets/RdRp-SARS-CoV-2/pocket_docking.prm

>  <SCORE>
-21.8313

>  <SCORE.INTER>
-21.7685

>  <SCORE.INTER.CONST>
1

>  <SCORE.INTER.POLAR>
-1.0198

>  <SCORE.INTER.REPUL>
0.00311461

>  <SCORE.INTER.ROT>
5

>  <SCORE.INTER.VDW>
-28.7167

>  <SCORE.INTER.norm>
-0.870739

>  <SCORE.INTRA>
-0.358722

>  <SCORE.INTRA.DIHEDRAL>
0.697722

>  <SCORE.INTRA.DIHEDRAL.0>
5.3847

>  <SCORE.INTRA.POLAR>
0

>  <SCORE.INTRA.POLAR.0>
0

>  <SCORE.INTRA.REPUL>
0

>  <SCORE.INTRA.REPUL.0>
0

>  <SCORE.INTRA.VDW>
-0.707583

>  <SCORE.INTRA.VDW.0>
-2.12164

>  <SCORE.INTRA.norm>
-0.0143489

>  <SCORE.RESTR>
0.295892

>  <SCORE.RESTR.CAVITY>
0.295892

>  <SCORE.RESTR.norm>
0.0118357

>  <SCORE.SYSTEM>
0

>  <SCORE.SYSTEM.CONST>
0

>  <SCORE.SYSTEM.DIHEDRAL>
0

>  <SCORE.SYSTEM.norm>
0

>  <SCORE.heavy>
25

>  <SCORE.norm>
-0.873252

$$$$
design_1
 OpenBabel05252019093D

 23 25  0  0  0  0  0  0  0  0999 V2000
   39.6305  -36.3738    2.3482 C   0  0  0  0  0  0  0  0  0  0  0  0
   39.7702  -37.0449    3.6487 C   0  0  0  0  0  0  0  0  0  0  0  0
   40.0407  -36.3009    4.7761 C   0  0  0  0  0  0  0  0  0  0  0  0
   40.1683  -36.9574    5.9728 C   0  0  0  0  0  0  0  0  0  0  0  0
   40.0431  -38.3219    6.1252 C   0  0  0  0  0  0  0  0  0  0  0  0
   40.1998  -38.9701    7.4306 C   0  0  0  0  0  0  0  0  0  0  0  0
   40.7158  -38.4898    8.5669 N   0  0  0  0  0  0  0  0  0  0  0  0
   40.6391  -39.4274    9.5248 N   0  0  0  0  0  0  0  0  0  0  0  0
   40.0702  -40.5324    9.0225 C   0  0  0  0  0  0  0  0  0  0  0  0
   39.6883  -42.0907    9.8237 S   0  0  0  0  0  0  0  0  0  0  0  0
   40.6950  -43.4197    9.1653 C   0  0  0  0  0  0  0  0  0  0  0  0
   40.0979  -44.7273    9.6093 C   0  0  0  0  0  0  0  0  0  0  0  0
   40.4641  -45.2247   10.6858 O   0  0  0  0  0  0  0  0  0  0  0  0
   39.1463  -45.2928    8.7379 N   0  0  0  0  0  0  0  0  0  0  0  0
   38.5225  -46.5521    9.0772 C   0  0  0  0  0  0  0  0  0  0  0  0
   38.8871  -47.5782    8.0365 C   0  0  0  0  0  0  0  0  0  0  0  0
   39.7576  -47.3219    7.0006 C   0  0  0  0  0  0  0  0  0  0  0  0
   39.8221  -48.5175    6.2764 C   0  0  0  0  0  0  0  0  0  0  0  0
   38.9906  -49.4224    6.9139 C   0  0  0  0  0  0  0  0  0  0  0  0
   38.4593  -48.8112    7.9554 O   0  0  0  0  0  0  0  0  0  0  0  0
   39.8058  -40.2258    7.7191 N   0  0  0  0  0  0  0  0  0  0  0  0
   39.7738  -39.0497    4.9975 C   0  0  0  0  0  0  0  0  0  0  0  0
   39.6345  -38.4280    3.7486 C   0  0  0  0  0  0  0  0  0  0  0  0
  1  2  1  0  0  0  0
  2  3  2  0  0  0  0
  3  4  1  0  0  0  0
  4  5  2  0  0  0  0
  5  6  1  0  0  0  0
  5 22  1  0  0  0  0
  6  7  2  0  0  0  0
  7  8  1  0  0  0  0
  8  9  1  0  0  0  0
  9 10  1  0  0  0  0
  9 21  2  0  0  0  0
 10 11  1  0  0  0  0
 11 12  1  0  0  0  0
 12 13  2  0  0  0  0
 12 14  1  0  0  0  0
 14 15  1  0  0  0  0
 15 16  1  0  0  0  0
 16 17  2  0  0  0  0
 17 18  1  0  0  0  0
 18 19  2  0  0  0  0
 19 20  1  0  0  0  0
 20 16  1  0  0  0  0
 21  6  1  0  0  0  0
 22 23  2  0  0  0  0
 23  2  1  0  0  0  0
M  END
>  <CHROM.1>
-14.51555584,-112.97818616,-165.77707395,-89.42555327,-117.21146290,4.12235809
39.77348926,-42.20378700,7.46200028,1.18258063,-1.38955882,-0.67972172

>  <Name>
design_1

>  <RI>
0

>  <Rbt.Current_Directory>
/home/ziqiaoxu/icml18-jtnn/VAEdesign

>  <Rbt.Executable>
rbdock ($Id: //depot/dev/client3/rdock/2013.1/src/exe/rbdock.cxx#4 $)

>  <Rbt.Library>
libRbt.so (2013.1, Build901 2013/11/27)

>  <Rbt.Parameter_File>
/export/apps/rDock/src/rDock_2013.1_src//data/scripts/dock.prm

>  <Rbt.Receptor>
/home/ziqiaoxu/icml18-jtnn/VAEdesign/targets/RdRp-SARS-CoV-2/pocket_docking.prm

>  <SCORE>
-17.6073

>  <SCORE.INTER>
-17.2905

>  <SCORE.INTER.CONST>
1

>  <SCORE.INTER.POLAR>
0

>  <SCORE.INTER.REPUL>
0

>  <SCORE.INTER.ROT>
6

>  <SCORE.INTER.VDW>
-28.6905

>  <SCORE.INTER.norm>
-0.751761

>  <SCORE.INTRA>
-0.316815

>  <SCORE.INTRA.DIHEDRAL>
-1.78698

>  <SCORE.INTRA.DIHEDRAL.0>
9.21437

>  <SCORE.INTRA.POLAR>
0

>  <SCORE.INTRA.POLAR.0>
0

>  <SCORE.INTRA.REPUL>
0

>  <SCORE.INTRA.REPUL.0>
0

>  <SCORE.INTRA.VDW>
0.576673

>  <SCORE.INTRA.VDW.0>
-2.10208

>  <SCORE.INTRA.norm>
-0.0137746

>  <SCORE.RESTR>
0

>  <SCORE.RESTR.CAVITY>
0

>  <SCORE.RESTR.norm>
0

>  <SCORE.SYSTEM>
0

>  <SCORE.SYSTEM.CONST>
0

>  <SCORE.SYSTEM.DIHEDRAL>
0

>  <SCORE.SYSTEM.norm>
0

>  <SCORE.heavy>
23

>  <SCORE.norm>
-0.765536

$$$$
design_2
 OpenBabel05252019093D

 27 29  0  0  0  0  0  0  0  0999 V2000
   40.4084  -44.5966   10.3017 C   0  0  0  0  0  0  0  0  0  0  0  0
   40.4862  -45.7255    9.3886 N   0  0  0  0  0  0  0  0  0  0  0  0
   39.5142  -46.7537    9.3118 C   0  0  0  0  0  0  0  0  0  0  0  0
   38.8155  -46.9042    8.0352 C   0  0  0  0  0  0  0  0  0  0  0  0
   39.0078  -48.0251    7.2640 C   0  0  0  0  0  0  0  0  0  0  0  0
   38.3318  -48.1376    6.0695 C   0  0  0  0  0  0  0  0  0  0  0  0
   37.4676  -47.1910    5.5935 C   0  0  0  0  0  0  0  0  0  0  0  0
   37.2793  -46.0686    6.3729 C   0  0  0  0  0  0  0  0  0  0  0  0
   36.3789  -45.0214    5.9360 C   0  0  0  0  0  0  0  0  0  0  0  0
   35.6477  -44.1839    5.6023 N   0  0  0  0  0  0  0  0  0  0  0  0
   37.9540  -45.9370    7.5837 C   0  0  0  0  0  0  0  0  0  0  0  0
   41.6373  -45.7948    8.5076 C   0  0  0  0  0  0  0  0  0  0  0  0
   41.6919  -46.7634    7.7271 O   0  0  0  0  0  0  0  0  0  0  0  0
   42.6281  -44.8106    8.5482 N   0  0  0  0  0  0  0  0  0  0  0  0
   43.7915  -44.7054    7.7931 C   0  0  0  0  0  0  0  0  0  0  0  0
   44.0123  -45.5554    6.6984 C   0  0  0  0  0  0  0  0  0  0  0  0
   45.1102  -45.5074    5.9245 C   0  0  0  0  0  0  0  0  0  0  0  0
   46.1393  -44.5691    6.1751 C   0  0  0  0  0  0  0  0  0  0  0  0
   47.2767  -44.6204    5.3147 C   0  0  0  0  0  0  0  0  0  0  0  0
   48.2082  -43.7454    5.5599 O   0  0  0  0  0  0  0  0  0  0  0  0
   47.5088  -45.5064    4.2353 N   0  0  0  0  0  0  0  0  0  0  0  0
   48.7600  -45.3846    3.4164 C   0  0  0  0  0  0  0  0  0  0  0  0
   48.4701  -46.2110    2.2132 C   0  0  0  0  0  0  0  0  0  0  0  0
   47.6119  -47.3449    2.7527 C   0  0  0  0  0  0  0  0  0  0  0  0
   46.7575  -46.5828    3.7510 C   0  0  0  0  0  0  0  0  0  0  0  0
   45.9619  -43.7211    7.2364 C   0  0  0  0  0  0  0  0  0  0  0  0
   44.7926  -43.8105    8.0180 C   0  0  0  0  0  0  0  0  0  0  0  0
  1  2  1  0  0  0  0
  2  3  1  0  0  0  0
  2 12  1  0  0  0  0
  3  4  1  0  0  0  0
  4  5  2  0  0  0  0
  5  6  1  0  0  0  0
  6  7  2  0  0  0  0
  7  8  1  0  0  0  0
  8  9  1  0  0  0  0
  8 11  2  0  0  0  0
  9 10  3  0  0  0  0
 11  4  1  0  0  0  0
 12 13  2  0  0  0  0
 12 14  1  0  0  0  0
 14 15  1  0  0  0  0
 15 16  2  0  0  0  0
 16 17  1  0  0  0  0
 17 18  2  0  0  0  0
 18 19  1  0  0  0  0
 18 26  1  0  0  0  0
 19 20  2  0  0  0  0
 19 21  1  0  0  0  0
 21 22  1  0  0  0  0
 22 23  1  0  0  0  0
 23 24  1  0  0  0  0
 24 25  1  0  0  0  0
 25 21  1  0  0  0  0
 26 27  2  0  0  0  0
 27 15  1  0  0  0  0
M  END
>  <CHROM.1>
118.25954938,112.80592064,9.42579662,179.74125497,42.73641149,-45.66561456
6.49186799,-2.89843395,-0.19117422,-1.96663166

>  <Name>
design_2

>  <RI>
0

>  <Rbt.Current_Directory>
/home/ziqiaoxu/icml18-jtnn/VAEdesign

>  <Rbt.Executable>
rbdock ($Id: //depot/dev/client3/rdock/2013.1/src/exe/rbdock.cxx#4 $)

>  <Rbt.Library>
libRbt.so (2013.1, Build901 2013/11/27)

>  <Rbt.Parameter_File>
/export/apps/rDock/src/rDock_2013.1_src//data/scripts/dock.prm

>  <Rbt.Receptor>
/home/ziqiaoxu/icml18-jtnn/VAEdesign/targets/RdRp-SARS-CoV-2/pocket_docking.prm

>  <SCORE>
-18.996

>  <SCORE.INTER>
-19.2662

>  <SCORE.INTER.CONST>
1

>  <SCORE.INTER.POLAR>
0

>  <SCORE.INTER.REPUL>
0

>  <SCORE.INTER.ROT>
4

>  <SCORE.INTER.VDW>
-28.6662

>  <SCORE.INTER.norm>
-0.713563

>  <SCORE.INTRA>
0.270176

>  <SCORE.INTRA.DIHEDRAL>
0.0662358

>  <SCORE.INTRA.DIHEDRAL.0>
2.19629

>  <SCORE.INTRA.POLAR>
0

>  <SCORE.INTRA.POLAR.0>
0

>  <SCORE.INTRA.REPUL>
0

>  <SCORE.INTRA.REPUL.0>
0

>  <SCORE.INTRA.VDW>
0.237058

>  <SCORE.INTRA.VDW.0>
-0.921617

>  <SCORE.INTRA.norm>
0.0100065

>  <SCORE.RESTR>
0

>  <SCORE.RESTR.CAVITY>
0

>  <SCORE.RESTR.norm>
0

>  <SCORE.SYSTEM>
0

>  <SCORE.SYSTEM.CONST>
0

>  <SCORE.SYSTEM.DIHEDRAL>
0

>  <SCORE.SYSTEM.norm>
0

>  <SCORE.heavy>
27

>  <SCORE.norm>
-0.703557

$$$$
design_3
 OpenBabel05252019093D

 25 27  0  0  0  0  0  0  0  0999 V2000
   40.0076  -37.2373    5.8058 C   0  0  0  0  0  0  0  0  0  0  0  0
   39.7202  -38.3731    6.7406 C   0  0  0  0  0  0  0  0  0  0  0  0
   38.7856  -39.3205    6.3761 C   0  0  0  0  0  0  0  0  0  0  0  0
   38.5416  -40.3565    7.2589 C   0  0  0  0  0  0  0  0  0  0  0  0
   39.1954  -40.4683    8.4744 C   0  0  0  0  0  0  0  0  0  0  0  0
   38.8895  -41.6164    9.3941 C   0  0  0  0  0  0  0  0  0  0  0  0
   40.1298  -42.4761    9.5843 C   0  0  0  0  0  0  0  0  0  0  0  0
   39.7527  -43.8124    9.9668 N   0  0  0  0  0  0  0  0  0  0  0  0
   40.3803  -44.9643    9.4343 C   0  0  0  0  0  0  0  0  0  0  0  0
   41.3018  -44.8293    8.5971 O   0  0  0  0  0  0  0  0  0  0  0  0
   39.9601  -46.3193    9.8551 C   0  0  0  0  0  0  0  0  0  0  0  0
   38.2905  -46.6280    9.2790 S   0  0  0  0  0  0  0  0  0  0  0  0
   38.2337  -47.6068    7.8113 C   0  0  0  0  0  0  0  0  0  0  0  0
   38.6060  -48.8859    7.6849 N   0  0  0  0  0  0  0  0  0  0  0  0
   38.4213  -49.2844    6.4396 N   0  0  0  0  0  0  0  0  0  0  0  0
   37.9380  -48.2558    5.8037 N   0  0  0  0  0  0  0  0  0  0  0  0
   37.8045  -47.2073    6.5963 N   0  0  0  0  0  0  0  0  0  0  0  0
   37.3055  -45.9116    6.2398 C   0  0  0  0  0  0  0  0  0  0  0  0
   36.2183  -45.7068    5.4220 C   0  0  0  0  0  0  0  0  0  0  0  0
   35.7945  -44.4058    5.1216 C   0  0  0  0  0  0  0  0  0  0  0  0
   36.4550  -43.3098    5.6367 C   0  0  0  0  0  0  0  0  0  0  0  0
   37.5340  -43.5202    6.4481 C   0  0  0  0  0  0  0  0  0  0  0  0
   37.9468  -44.8023    6.7406 C   0  0  0  0  0  0  0  0  0  0  0  0
   40.1240  -39.5130    8.8192 C   0  0  0  0  0  0  0  0  0  0  0  0
   40.3851  -38.4673    7.9527 C   0  0  0  0  0  0  0  0  0  0  0  0
  1  2  1  0  0  0  0
  2  3  2  0  0  0  0
  3  4  1  0  0  0  0
  4  5  2  0  0  0  0
  5  6  1  0  0  0  0
  5 24  1  0  0  0  0
  6  7  1  0  0  0  0
  7  8  1  0  0  0  0
  8  9  1  0  0  0  0
  9 10  2  0  0  0  0
  9 11  1  0  0  0  0
 11 12  1  0  0  0  0
 12 13  1  0  0  0  0
 13 14  2  0  0  0  0
 14 15  1  0  0  0  0
 15 16  2  0  0  0  0
 16 17  1  0  0  0  0
 17 18  1  0  0  0  0
 17 13  1  0  0  0  0
 18 19  2  0  0  0  0
 19 20  1  0  0  0  0
 20 21  2  0  0  0  0
 21 22  1  0  0  0  0
 22 23  2  0  0  0  0
 23 18  1  0  0  0  0
 24 25  2  0  0  0  0
 25  2  1  0  0  0  0
M  END
>  <CHROM.1>
116.96121148,-156.17868274,138.12147660,66.65086823,99.99123692,65.97798344
-138.33355746,38.71800370,-43.91412764,7.61565356,1.28523749,-0.91894535
-0.21667244

>  <Name>
design_3

>  <RI>
0

>  <Rbt.Current_Directory>
/home/ziqiaoxu/icml18-jtnn/VAEdesign

>  <Rbt.Executable>
rbdock ($Id: //depot/dev/client3/rdock/2013.1/src/exe/rbdock.cxx#4 $)

>  <Rbt.Library>
libRbt.so (2013.1, Build901 2013/11/27)

>  <Rbt.Parameter_File>
/export/apps/rDock/src/rDock_2013.1_src//data/scripts/dock.prm

>  <Rbt.Receptor>
/home/ziqiaoxu/icml18-jtnn/VAEdesign/targets/RdRp-SARS-CoV-2/pocket_docking.prm

>  <SCORE>
-18.4846

>  <SCORE.INTER>
-18.993

>  <SCORE.INTER.CONST>
1

>  <SCORE.INTER.POLAR>
-1.01059

>  <SCORE.INTER.REPUL>
0.133057

>  <SCORE.INTER.ROT>
7

>  <SCORE.INTER.VDW>
-28.6223

>  <SCORE.INTER.norm>
-0.75972

>  <SCORE.INTRA>
0.508383

>  <SCORE.INTRA.DIHEDRAL>
2.16581

>  <SCORE.INTRA.DIHEDRAL.0>
13.765

>  <SCORE.INTRA.POLAR>
0

>  <SCORE.INTRA.POLAR.0>
0

>  <SCORE.INTRA.REPUL>
0

>  <SCORE.INTRA.REPUL.0>
0

>  <SCORE.INTRA.VDW>
-0.574523

>  <SCORE.INTRA.VDW.0>
-2.67508

>  <SCORE.INTRA.norm>
0.0203353

>  <SCORE.RESTR>
0

>  <SCORE.RESTR.CAVITY>
0

>  <SCORE.RESTR.norm>
0

>  <SCORE.SYSTEM>
0

>  <SCORE.SYSTEM.CONST>
0

>  <SCORE.SYSTEM.DIHEDRAL>
0

>  <SCORE.SYSTEM.norm>
0

>  <SCORE.heavy>
25

>  <SCORE.norm>
-0.739385

$$$$
design_9
 OpenBabel05252019093D

 27 30  0  0  0  0  0  0  0  0999 V2000
   39.8465  -48.1129    6.3598 C   0  0  0  0  0  0  0  0  0  0  0  0
   39.8728  -47.3687    7.6048 N   0  0  0  0  0  0  0  0  0  0  0  0
   38.8849  -47.4234    8.5359 C   0  0  0  0  0  0  0  0  0  0  0  0
   39.2800  -46.5945    9.5594 C   0  0  0  0  0  0  0  0  0  0  0  0
   40.4690  -46.0804    9.2141 N   0  0  0  0  0  0  0  0  0  0  0  0
   40.8564  -46.5548    7.9909 C   0  0  0  0  0  0  0  0  0  0  0  0
   42.1235  -46.2081    7.2820 C   0  0  0  0  0  0  0  0  0  0  0  0
   42.8866  -45.3764    8.0627 O   0  0  0  0  0  0  0  0  0  0  0  0
   44.1199  -44.8281    7.8517 C   0  0  0  0  0  0  0  0  0  0  0  0
   44.7710  -43.9739    8.7075 C   0  0  0  0  0  0  0  0  0  0  0  0
   46.0244  -43.4585    8.4195 C   0  0  0  0  0  0  0  0  0  0  0  0
   46.6467  -43.8220    7.2150 C   0  0  0  0  0  0  0  0  0  0  0  0
   46.0170  -44.6647    6.3598 C   0  0  0  0  0  0  0  0  0  0  0  0
   46.6392  -45.0861    5.0783 C   0  0  0  0  0  0  0  0  0  0  0  0
   47.8707  -44.8621    4.9294 O   0  0  0  0  0  0  0  0  0  0  0  0
   45.9008  -45.7115    4.0574 N   0  0  0  0  0  0  0  0  0  0  0  0
   46.3190  -46.1707    2.8044 C   0  0  0  0  0  0  0  0  0  0  0  0
   47.5785  -46.6008    2.5354 C   0  0  0  0  0  0  0  0  0  0  0  0
   47.9194  -47.0453    1.2554 C   0  0  0  0  0  0  0  0  0  0  0  0
   46.9625  -47.0438    0.2635 C   0  0  0  0  0  0  0  0  0  0  0  0
   45.6799  -46.6110    0.5181 C   0  0  0  0  0  0  0  0  0  0  0  0
   44.7252  -46.6135   -0.4862 C   0  0  0  0  0  0  0  0  0  0  0  0
   43.4366  -46.1800   -0.2351 C   0  0  0  0  0  0  0  0  0  0  0  0
   43.1787  -45.7544    1.0615 C   0  0  0  0  0  0  0  0  0  0  0  0
   44.0961  -45.7536    2.0211 N   0  0  0  0  0  0  0  0  0  0  0  0
   45.3496  -46.1765    1.7724 C   0  0  0  0  0  0  0  0  0  0  0  0
   44.7810  -45.1494    6.6837 C   0  0  0  0  0  0  0  0  0  0  0  0
  1  2  1  0  0  0  0
  2  3  1  0  0  0  0
  3  4  2  0  0  0  0
  4  5  1  0  0  0  0
  5  6  2  0  0  0  0
  6  7  1  0  0  0  0
  6  2  1  0  0  0  0
  7  8  1  0  0  0  0
  8  9  1  0  0  0  0
  9 10  2  0  0  0  0
 10 11  1  0  0  0  0
 11 12  2  0  0  0  0
 12 13  1  0  0  0  0
 13 14  1  0  0  0  0
 13 27  2  0  0  0  0
 14 15  2  0  0  0  0
 14 16  1  0  0  0  0
 16 17  1  0  0  0  0
 17 18  2  0  0  0  0
 18 19  1  0  0  0  0
 19 20  2  0  0  0  0
 20 21  1  0  0  0  0
 21 22  2  0  0  0  0
 22 23  1  0  0  0  0
 23 24  2  0  0  0  0
 24 25  1  0  0  0  0
 25 26  2  0  0  0  0
 26 17  1  0  0  0  0
 26 21  1  0  0  0  0
 27  9  1  0  0  0  0
M  END
>  <CHROM.1>
-177.27953372,178.39623587,178.28224384,14.14813345,28.64382766,44.11532429
-45.90443604,5.06773787,2.24783105,0.35285713,1.30302512

>  <Name>
design_9

>  <RI>
0

>  <Rbt.Current_Directory>
/home/ziqiaoxu/icml18-jtnn/VAEdesign

>  <Rbt.Executable>
rbdock ($Id: //depot/dev/client3/rdock/2013.1/src/exe/rbdock.cxx#4 $)

>  <Rbt.Library>
libRbt.so (2013.1, Build901 2013/11/27)

>  <Rbt.Parameter_File>
/export/apps/rDock/src/rDock_2013.1_src//data/scripts/dock.prm

>  <Rbt.Receptor>
/home/ziqiaoxu/icml18-jtnn/VAEdesign/targets/RdRp-SARS-CoV-2/pocket_docking.prm

>  <SCORE>
-16.2062

>  <SCORE.INTER>
-18.2209

>  <SCORE.INTER.CONST>
1

>  <SCORE.INTER.POLAR>
0

>  <SCORE.INTER.REPUL>
0

>  <SCORE.INTER.ROT>
5

>  <SCORE.INTER.VDW>
-28.6209

>  <SCORE.INTER.norm>
-0.674847

>  <SCORE.INTRA>
2.01472

>  <SCORE.INTRA.DIHEDRAL>
2.18088

>  <SCORE.INTRA.DIHEDRAL.0>
2.86547

>  <SCORE.INTRA.POLAR>
0.0122032

>  <SCORE.INTRA.POLAR.0>
-0.0122032

>  <SCORE.INTRA.REPUL>
0

>  <SCORE.INTRA.REPUL.0>
0

>  <SCORE.INTRA.VDW>
0.882789

>  <SCORE.INTRA.VDW.0>
-1.13995

>  <SCORE.INTRA.norm>
0.0746193

>  <SCORE.RESTR>
0

>  <SCORE.RESTR.CAVITY>
0

>  <SCORE.RESTR.norm>
0

>  <SCORE.SYSTEM>
0

>  <SCORE.SYSTEM.CONST>
0

>  <SCORE.SYSTEM.DIHEDRAL>
0

>  <SCORE.SYSTEM.norm>
0

>  <SCORE.heavy>
27

>  <SCORE.norm>
-0.600228

$$$$
design_13
 OpenBabel05252019093D

 27 29  0  0  0  0  0  0  0  0999 V2000
   38.9849  -48.4884    7.2062 C   0  0  0  0  0  0  0  0  0  0  0  0
   40.3012  -47.9577    6.6612 C   0  0  0  0  0  0  0  0  0  0  0  0
   40.1478  -47.4017    5.2631 C   0  0  0  0  0  0  0  0  0  0  0  0
   40.7667  -46.9054    7.6072 C   0  0  0  0  0  0  0  0  0  0  0  0
   40.0035  -46.5066    8.6465 N   0  0  0  0  0  0  0  0  0  0  0  0
   40.4985  -45.5538    9.4468 C   0  0  0  0  0  0  0  0  0  0  0  0
   41.7460  -44.9718    9.2498 C   0  0  0  0  0  0  0  0  0  0  0  0
   42.5159  -45.3855    8.1875 C   0  0  0  0  0  0  0  0  0  0  0  0
   43.7978  -44.8681    7.8847 N   0  0  0  0  0  0  0  0  0  0  0  0
   44.1933  -43.5928    8.4740 C   0  0  0  0  0  0  0  0  0  0  0  0
   44.7236  -45.5206    7.0349 C   0  0  0  0  0  0  0  0  0  0  0  0
   44.6667  -45.0231    5.6043 C   0  0  0  0  0  0  0  0  0  0  0  0
   45.9640  -45.3898    4.9020 C   0  0  0  0  0  0  0  0  0  0  0  0
   47.0237  -44.9883    5.4075 O   0  0  0  0  0  0  0  0  0  0  0  0
   45.8118  -46.1603    3.7314 N   0  0  0  0  0  0  0  0  0  0  0  0
   46.8410  -46.6462    2.8763 C   0  0  0  0  0  0  0  0  0  0  0  0
   48.0125  -47.2038    3.3467 C   0  0  0  0  0  0  0  0  0  0  0  0
   48.9932  -47.7145    2.4867 C   0  0  0  0  0  0  0  0  0  0  0  0
   48.7902  -47.6627    1.1293 C   0  0  0  0  0  0  0  0  0  0  0  0
   47.6280  -47.1078    0.6893 C   0  0  0  0  0  0  0  0  0  0  0  0
   46.6209  -46.5856    1.4908 C   0  0  0  0  0  0  0  0  0  0  0  0
   45.4738  -46.0017    0.9192 N   0  0  0  0  0  0  0  0  0  0  0  0
   44.8442  -46.2849   -0.3410 C   0  0  0  0  0  0  0  0  0  0  0  0
   43.3306  -46.1799   -0.0219 C   0  0  0  0  0  0  0  0  0  0  0  0
   43.2835  -45.5987    1.3715 C   0  0  0  0  0  0  0  0  0  0  0  0
   44.6545  -44.9748    1.5176 C   0  0  0  0  0  0  0  0  0  0  0  0
   41.9649  -46.3572    7.4049 N   0  0  0  0  0  0  0  0  0  0  0  0
  1  2  1  0  0  0  0
  2  3  1  0  0  0  0
  2  4  1  0  0  0  0
  4  5  2  0  0  0  0
  5  6  1  0  0  0  0
  6  7  2  0  0  0  0
  7  8  1  0  0  0  0
  8  9  1  0  0  0  0
  8 27  2  0  0  0  0
  9 10  1  0  0  0  0
  9 11  1  0  0  0  0
 11 12  1  0  0  0  0
 12 13  1  0  0  0  0
 13 14  2  0  0  0  0
 13 15  1  0  0  0  0
 15 16  1  0  0  0  0
 16 17  2  0  0  0  0
 17 18  1  0  0  0  0
 18 19  2  0  0  0  0
 19 20  1  0  0  0  0
 20 21  2  0  0  0  0
 21 22  1  0  0  0  0
 21 16  1  0  0  0  0
 22 23  1  0  0  0  0
 23 24  1  0  0  0  0
 24 25  1  0  0  0  0
 25 26  1  0  0  0  0
 26 22  1  0  0  0  0
 27  4  1  0  0  0  0
M  END
>  <CHROM.1>
-5.42041682,-17.63578080,95.40574424,160.27272623,-56.67829525,43.05790312
-153.36697620,44.09487550,-46.16995583,4.75869035,2.29639734,0.21405167,1.33155338

>  <Name>
design_13

>  <RI>
0

>  <Rbt.Current_Directory>
/home/ziqiaoxu/icml18-jtnn/VAEdesign

>  <Rbt.Executable>
rbdock ($Id: //depot/dev/client3/rdock/2013.1/src/exe/rbdock.cxx#4 $)

>  <Rbt.Library>
libRbt.so (2013.1, Build901 2013/11/27)

>  <Rbt.Parameter_File>
/export/apps/rDock/src/rDock_2013.1_src//data/scripts/dock.prm

>  <Rbt.Receptor>
/home/ziqiaoxu/icml18-jtnn/VAEdesign/targets/RdRp-SARS-CoV-2/pocket_docking.prm

>  <SCORE>
-14.4919

>  <SCORE.INTER>
-16.3024

>  <SCORE.INTER.CONST>
1

>  <SCORE.INTER.POLAR>
-0.0470313

>  <SCORE.INTER.REPUL>
0.00273328

>  <SCORE.INTER.ROT>
7

>  <SCORE.INTER.VDW>
-28.5561

>  <SCORE.INTER.norm>
-0.603791

>  <SCORE.INTRA>
1.81051

>  <SCORE.INTRA.DIHEDRAL>
1.09342

>  <SCORE.INTRA.DIHEDRAL.0>
15.7936

>  <SCORE.INTRA.POLAR>
0

>  <SCORE.INTRA.POLAR.0>
0

>  <SCORE.INTRA.REPUL>
0

>  <SCORE.INTRA.REPUL.0>
0

>  <SCORE.INTRA.VDW>
1.2638

>  <SCORE.INTRA.VDW.0>
1.41786

>  <SCORE.INTRA.norm>
0.0670558

>  <SCORE.RESTR>
0

>  <SCORE.RESTR.CAVITY>
0

>  <SCORE.RESTR.norm>
0

>  <SCORE.SYSTEM>
0

>  <SCORE.SYSTEM.CONST>
0

>  <SCORE.SYSTEM.DIHEDRAL>
0

>  <SCORE.SYSTEM.norm>
0

>  <SCORE.heavy>
27

>  <SCORE.norm>
-0.536735

$$$$
design_14
 OpenBabel05252019093D

 24 27  0  0  0  0  0  0  0  0999 V2000
   36.7855  -41.1784    6.4894 C   0  0  0  0  0  0  0  0  0  0  0  0
   37.9653  -41.7991    6.7877 C   0  0  0  0  0  0  0  0  0  0  0  0
   38.0607  -43.1500    6.5483 C   0  0  0  0  0  0  0  0  0  0  0  0
   37.0304  -43.9003    6.0258 C   0  0  0  0  0  0  0  0  0  0  0  0
   37.1950  -45.3299    5.7953 C   0  0  0  0  0  0  0  0  0  0  0  0
   36.3547  -46.1508    5.1521 N   0  0  0  0  0  0  0  0  0  0  0  0
   36.8998  -47.3603    5.1790 N   0  0  0  0  0  0  0  0  0  0  0  0
   38.0559  -47.3431    5.8147 N   0  0  0  0  0  0  0  0  0  0  0  0
   38.9584  -48.4514    6.0597 C   0  0  0  0  0  0  0  0  0  0  0  0
   39.0150  -48.6319    7.5806 C   0  0  0  0  0  0  0  0  0  0  0  0
   39.7375  -47.4498    8.1908 C   0  0  0  0  0  0  0  0  0  0  0  0
   40.9204  -46.9594    7.8608 N   0  0  0  0  0  0  0  0  0  0  0  0
   41.3899  -45.9328    8.4950 C   0  0  0  0  0  0  0  0  0  0  0  0
   42.7162  -45.3387    8.1661 C   0  0  0  0  0  0  0  0  0  0  0  0
   43.4435  -45.7254    7.0841 C   0  0  0  0  0  0  0  0  0  0  0  0
   44.6781  -45.1486    6.8077 C   0  0  0  0  0  0  0  0  0  0  0  0
   45.1592  -44.1811    7.6402 C   0  0  0  0  0  0  0  0  0  0  0  0
   44.4265  -43.7859    8.7375 C   0  0  0  0  0  0  0  0  0  0  0  0
   43.2582  -44.3728    8.9468 N   0  0  0  0  0  0  0  0  0  0  0  0
   40.6164  -45.3994    9.4965 C   0  0  0  0  0  0  0  0  0  0  0  0
   39.2469  -46.4206    9.4613 S   0  0  0  0  0  0  0  0  0  0  0  0
   38.2337  -46.0849    6.1938 N   0  0  0  0  0  0  0  0  0  0  0  0
   35.8397  -43.2728    5.7248 C   0  0  0  0  0  0  0  0  0  0  0  0
   35.7312  -41.8999    5.9640 C   0  0  0  0  0  0  0  0  0  0  0  0
  1  2  2  0  0  0  0
  2  3  1  0  0  0  0
  3  4  2  0  0  0  0
  4  5  1  0  0  0  0
  4 23  1  0  0  0  0
  5  6  1  0  0  0  0
  6  7  2  0  0  0  0
  7  8  1  0  0  0  0
  8  9  1  0  0  0  0
  8 22  1  0  0  0  0
  9 10  1  0  0  0  0
 10 11  1  0  0  0  0
 11 12  2  0  0  0  0
 12 13  1  0  0  0  0
 13 14  1  0  0  0  0
 13 20  2  0  0  0  0
 14 15  2  0  0  0  0
 15 16  1  0  0  0  0
 16 17  2  0  0  0  0
 17 18  1  0  0  0  0
 18 19  2  0  0  0  0
 19 14  1  0  0  0  0
 20 21  1  0  0  0  0
 21 11  1  0  0  0  0
 22  5  2  0  0  0  0
 23 24  2  0  0  0  0
 24  1  1  0  0  0  0
M  END
>  <CHROM.1>
-171.27564768,-116.38898496,-69.14679586,-51.96888306,8.18074039,39.61585514
-45.32285295,7.21132461,-3.00579453,0.32011312,3.09800944

>  <Name>
design_14

>  <RI>
0

>  <Rbt.Current_Directory>
/home/ziqiaoxu/icml18-jtnn/VAEdesign

>  <Rbt.Executable>
rbdock ($Id: //depot/dev/client3/rdock/2013.1/src/exe/rbdock.cxx#4 $)

>  <Rbt.Library>
libRbt.so (2013.1, Build901 2013/11/27)

>  <Rbt.Parameter_File>
/export/apps/rDock/src/rDock_2013.1_src//data/scripts/dock.prm

>  <Rbt.Receptor>
/home/ziqiaoxu/icml18-jtnn/VAEdesign/targets/RdRp-SARS-CoV-2/pocket_docking.prm

>  <SCORE>
-18.7887

>  <SCORE.INTER>
-18.044

>  <SCORE.INTER.CONST>
1

>  <SCORE.INTER.POLAR>
0

>  <SCORE.INTER.REPUL>
0.00164589

>  <SCORE.INTER.ROT>
5

>  <SCORE.INTER.VDW>
-28.4522

>  <SCORE.INTER.norm>
-0.751832

>  <SCORE.INTRA>
-0.744768

>  <SCORE.INTRA.DIHEDRAL>
0.864785

>  <SCORE.INTRA.DIHEDRAL.0>
3.74755

>  <SCORE.INTRA.POLAR>
0

>  <SCORE.INTRA.POLAR.0>
0

>  <SCORE.INTRA.REPUL>
0

>  <SCORE.INTRA.REPUL.0>
0

>  <SCORE.INTRA.VDW>
-1.17716

>  <SCORE.INTRA.VDW.0>
-1.2232

>  <SCORE.INTRA.norm>
-0.031032

>  <SCORE.RESTR>
0

>  <SCORE.RESTR.CAVITY>
0

>  <SCORE.RESTR.norm>
0

>  <SCORE.SYSTEM>
0

>  <SCORE.SYSTEM.CONST>
0

>  <SCORE.SYSTEM.DIHEDRAL>
0

>  <SCORE.SYSTEM.norm>
0

>  <SCORE.heavy>
24

>  <SCORE.norm>
-0.782864

$$$$
design_13
 OpenBabel05252019093D

 24 25  0  0  0  0  0  0  0  0999 V2000
   48.0587  -47.7375    0.3057 C   0  0  0  0  0  0  0  0  0  0  0  0
   47.2426  -47.1027    1.1839 O   0  0  0  0  0  0  0  0  0  0  0  0
   45.9685  -46.6574    0.9056 C   0  0  0  0  0  0  0  0  0  0  0  0
   45.3844  -46.6198   -0.3348 C   0  0  0  0  0  0  0  0  0  0  0  0
   44.0629  -46.1481   -0.4780 C   0  0  0  0  0  0  0  0  0  0  0  0
   43.3984  -45.7345    0.6336 C   0  0  0  0  0  0  0  0  0  0  0  0
   43.9723  -45.7580    1.9444 C   0  0  0  0  0  0  0  0  0  0  0  0
   45.2534  -46.2143    2.0642 C   0  0  0  0  0  0  0  0  0  0  0  0
   46.1295  -46.0421    3.1880 C   0  0  0  0  0  0  0  0  0  0  0  0
   45.7897  -45.8103    4.5265 N   0  0  0  0  0  0  0  0  0  0  0  0
   45.1279  -44.8819    5.3081 C   0  0  0  0  0  0  0  0  0  0  0  0
   44.6587  -43.8352    4.8518 O   0  0  0  0  0  0  0  0  0  0  0  0
   45.0307  -45.1805    6.7014 N   0  0  0  0  0  0  0  0  0  0  0  0
   44.6303  -44.5787    7.8353 C   0  0  0  0  0  0  0  0  0  0  0  0
   43.3593  -44.8254    8.5616 C   0  0  0  0  0  0  0  0  0  0  0  0
   43.0461  -44.3123    9.6283 O   0  0  0  0  0  0  0  0  0  0  0  0
   42.5037  -45.7168    7.8489 N   0  0  0  0  0  0  0  0  0  0  0  0
   41.2551  -46.2143    8.0411 C   0  0  0  0  0  0  0  0  0  0  0  0
   40.4782  -45.9282    9.1395 C   0  0  0  0  0  0  0  0  0  0  0  0
   39.2687  -46.6216    9.3535 C   0  0  0  0  0  0  0  0  0  0  0  0
   38.8880  -47.5737    8.4469 C   0  0  0  0  0  0  0  0  0  0  0  0
   39.6597  -47.9005    7.2989 C   0  0  0  0  0  0  0  0  0  0  0  0
   39.1765  -48.9657    6.3918 C   0  0  0  0  0  0  0  0  0  0  0  0
   40.7994  -47.2146    7.1402 C   0  0  0  0  0  0  0  0  0  0  0  0
  1  2  1  0  0  0  0
  2  3  1  0  0  0  0
  3  4  2  0  0  0  0
  4  5  1  0  0  0  0
  5  6  2  0  0  0  0
  6  7  1  0  0  0  0
  7  8  2  0  0  0  0
  8  9  1  0  0  0  0
  8  3  1  0  0  0  0
  9 10  1  0  0  0  0
 10 11  1  0  0  0  0
 11 12  2  0  0  0  0
 11 13  1  0  0  0  0
 13 14  1  0  0  0  0
 14 15  1  0  0  0  0
 15 16  2  0  0  0  0
 15 17  1  0  0  0  0
 17 18  1  0  0  0  0
 18 19  2  0  0  0  0
 19 20  1  0  0  0  0
 20 21  2  0  0  0  0
 21 22  1  0  0  0  0
 22 23  1  0  0  0  0
 22 24  2  0  0  0  0
 24 18  1  0  0  0  0
M  END
>  <CHROM.1>
-9.20216051,-170.01827620,-60.80186478,103.65613551,176.20873354,-1.65443139
43.54152813,-46.13883448,5.02589768,-0.88642371,0.44979838,1.22077964

>  <Name>
design_13

>  <RI>
0

>  <Rbt.Current_Directory>
/home/ziqiaoxu/icml18-jtnn/VAEdesign

>  <Rbt.Executable>
rbdock ($Id: //depot/dev/client3/rdock/2013.1/src/exe/rbdock.cxx#4 $)

>  <Rbt.Library>
libRbt.so (2013.1, Build901 2013/11/27)

>  <Rbt.Parameter_File>
/export/apps/rDock/src/rDock_2013.1_src//data/scripts/dock.prm

>  <Rbt.Receptor>
/home/ziqiaoxu/icml18-jtnn/VAEdesign/targets/RdRp-SARS-CoV-2/pocket_docking.prm

>  <SCORE>
-28.4329

>  <SCORE.INTER>
-23.1321

>  <SCORE.INTER.CONST>
1

>  <SCORE.INTER.POLAR>
-1.78885

>  <SCORE.INTER.REPUL>
0

>  <SCORE.INTER.ROT>
6

>  <SCORE.INTER.VDW>
-28.45

>  <SCORE.INTER.norm>
-0.963836

>  <SCORE.INTRA>
-5.30084

>  <SCORE.INTRA.DIHEDRAL>
-11.9154

>  <SCORE.INTRA.DIHEDRAL.0>
16.7424

>  <SCORE.INTRA.POLAR>
0

>  <SCORE.INTRA.POLAR.0>
0

>  <SCORE.INTRA.REPUL>
0

>  <SCORE.INTRA.REPUL.0>
0

>  <SCORE.INTRA.VDW>
0.656847

>  <SCORE.INTRA.VDW.0>
-1.44491

>  <SCORE.INTRA.norm>
-0.220868

>  <SCORE.RESTR>
0

>  <SCORE.RESTR.CAVITY>
0

>  <SCORE.RESTR.norm>
0

>  <SCORE.SYSTEM>
0

>  <SCORE.SYSTEM.CONST>
0

>  <SCORE.SYSTEM.DIHEDRAL>
0

>  <SCORE.SYSTEM.norm>
0

>  <SCORE.heavy>
24

>  <SCORE.norm>
-1.1847

$$$$
design_2
 OpenBabel05252019093D

 26 28  0  0  0  0  0  0  0  0999 V2000
   36.8981  -46.0960    6.6059 C   0  0  0  0  0  0  0  0  0  0  0  0
   37.7656  -45.5445    7.4470 C   0  0  0  0  0  0  0  0  0  0  0  0
   38.4828  -46.3808    8.4133 C   0  0  0  0  0  0  0  0  0  0  0  0
   39.9180  -46.3787    8.3432 N   0  0  0  0  0  0  0  0  0  0  0  0
   40.5768  -47.0280    7.3240 C   0  0  0  0  0  0  0  0  0  0  0  0
   39.9338  -47.8760    6.2850 C   0  0  0  0  0  0  0  0  0  0  0  0
   41.8662  -46.7538    7.4534 N   0  0  0  0  0  0  0  0  0  0  0  0
   42.0565  -45.9728    8.4898 N   0  0  0  0  0  0  0  0  0  0  0  0
   40.8028  -45.7248    9.0724 C   0  0  0  0  0  0  0  0  0  0  0  0
   40.6212  -44.6925   10.4916 S   0  0  0  0  0  0  0  0  0  0  0  0
   39.7098  -43.1959   10.2757 C   0  0  0  0  0  0  0  0  0  0  0  0
   39.8856  -42.4349    9.0352 C   0  0  0  0  0  0  0  0  0  0  0  0
   40.2025  -43.0206    8.0103 O   0  0  0  0  0  0  0  0  0  0  0  0
   39.6728  -41.0229    9.0981 N   0  0  0  0  0  0  0  0  0  0  0  0
   39.8097  -40.1834    7.9647 C   0  0  0  0  0  0  0  0  0  0  0  0
   40.1200  -38.8607    7.9623 C   0  0  0  0  0  0  0  0  0  0  0  0
   40.2392  -38.1730    6.7464 C   0  0  0  0  0  0  0  0  0  0  0  0
   40.0550  -38.7843    5.5312 C   0  0  0  0  0  0  0  0  0  0  0  0
   40.1497  -38.0210    4.2726 C   0  0  0  0  0  0  0  0  0  0  0  0
   40.4460  -38.6341    3.0790 C   0  0  0  0  0  0  0  0  0  0  0  0
   40.4854  -37.8874    1.8975 C   0  0  0  0  0  0  0  0  0  0  0  0
   40.2349  -36.5496    1.8867 C   0  0  0  0  0  0  0  0  0  0  0  0
   39.9353  -35.9223    3.0878 C   0  0  0  0  0  0  0  0  0  0  0  0
   39.8945  -36.6557    4.2684 C   0  0  0  0  0  0  0  0  0  0  0  0
   39.7438  -40.1176    5.5415 C   0  0  0  0  0  0  0  0  0  0  0  0
   39.6185  -40.8215    6.7319 C   0  0  0  0  0  0  0  0  0  0  0  0
  1  2  2  0  0  0  0
  2  3  1  0  0  0  0
  3  4  1  0  0  0  0
  4  5  1  0  0  0  0
  5  6  1  0  0  0  0
  5  7  2  0  0  0  0
  7  8  1  0  0  0  0
  8  9  2  0  0  0  0
  9 10  1  0  0  0  0
  9  4  1  0  0  0  0
 10 11  1  0  0  0  0
 11 12  1  0  0  0  0
 12 13  2  0  0  0  0
 12 14  1  0  0  0  0
 14 15  1  0  0  0  0
 15 16  2  0  0  0  0
 16 17  1  0  0  0  0
 17 18  2  0  0  0  0
 18 19  1  0  0  0  0
 18 25  1  0  0  0  0
 19 20  2  0  0  0  0
 20 21  1  0  0  0  0
 21 22  2  0  0  0  0
 22 23  1  0  0  0  0
 23 24  2  0  0  0  0
 24 19  1  0  0  0  0
 25 26  2  0  0  0  0
 26 15  1  0  0  0  0
M  END
>  <CHROM.1>
120.74396780,-73.34723688,-63.87137834,-39.17641399,27.87781650,-153.83452008
156.34611805,39.99324844,-42.26298116,6.97940794,1.66445896,1.47117434,2.55739461

>  <Name>
design_2

>  <RI>
0

>  <Rbt.Current_Directory>
/home/ziqiaoxu/icml18-jtnn/VAEdesign

>  <Rbt.Executable>
rbdock ($Id: //depot/dev/client3/rdock/2013.1/src/exe/rbdock.cxx#4 $)

>  <Rbt.Library>
libRbt.so (2013.1, Build901 2013/11/27)

>  <Rbt.Parameter_File>
/export/apps/rDock/src/rDock_2013.1_src//data/scripts/dock.prm

>  <Rbt.Receptor>
/home/ziqiaoxu/icml18-jtnn/VAEdesign/targets/RdRp-SARS-CoV-2/pocket_docking.prm

>  <SCORE>
-18.6004

>  <SCORE.INTER>
-19.083

>  <SCORE.INTER.CONST>
1

>  <SCORE.INTER.POLAR>
-0.893218

>  <SCORE.INTER.REPUL>
0

>  <SCORE.INTER.ROT>
7

>  <SCORE.INTER.VDW>
-28.446

>  <SCORE.INTER.norm>
-0.73396

>  <SCORE.INTRA>
0.48261

>  <SCORE.INTRA.DIHEDRAL>
-1.15584

>  <SCORE.INTRA.DIHEDRAL.0>
12.3946

>  <SCORE.INTRA.POLAR>
0

>  <SCORE.INTRA.POLAR.0>
0

>  <SCORE.INTRA.REPUL>
0

>  <SCORE.INTRA.REPUL.0>
0

>  <SCORE.INTRA.VDW>
1.06053

>  <SCORE.INTRA.VDW.0>
-1.83822

>  <SCORE.INTRA.norm>
0.0185619

>  <SCORE.RESTR>
0

>  <SCORE.RESTR.CAVITY>
0

>  <SCORE.RESTR.norm>
0

>  <SCORE.SYSTEM>
0

>  <SCORE.SYSTEM.CONST>
0

>  <SCORE.SYSTEM.DIHEDRAL>
0

>  <SCORE.SYSTEM.norm>
0

>  <SCORE.heavy>
26

>  <SCORE.norm>
-0.715398

$$$$
design_0
 OpenBabel05252019093D

 25 28  0  0  0  0  0  0  0  0999 V2000
   39.7017  -46.2171    9.7633 C   0  0  0  0  0  0  0  0  0  0  0  0
   39.6463  -46.9784    8.4886 C   0  0  0  0  0  0  0  0  0  0  0  0
   38.5393  -47.7839    8.2662 C   0  0  0  0  0  0  0  0  0  0  0  0
   38.4499  -48.5075    7.0964 C   0  0  0  0  0  0  0  0  0  0  0  0
   39.4727  -48.4115    6.1664 C   0  0  0  0  0  0  0  0  0  0  0  0
   40.5553  -47.6109    6.4066 C   0  0  0  0  0  0  0  0  0  0  0  0
   40.6621  -46.8817    7.5695 C   0  0  0  0  0  0  0  0  0  0  0  0
   41.8529  -46.0262    7.7825 C   0  0  0  0  0  0  0  0  0  0  0  0
   42.1610  -45.3139    8.8567 N   0  0  0  0  0  0  0  0  0  0  0  0
   43.3096  -44.6815    8.6430 N   0  0  0  0  0  0  0  0  0  0  0  0
   43.7623  -44.9821    7.4095 C   0  0  0  0  0  0  0  0  0  0  0  0
   44.9818  -44.4927    6.7682 C   0  0  0  0  0  0  0  0  0  0  0  0
   45.4958  -45.3251    5.7070 N   0  0  0  0  0  0  0  0  0  0  0  0
   45.2239  -45.1008    4.3446 C   0  0  0  0  0  0  0  0  0  0  0  0
   44.4660  -44.1186    4.0710 O   0  0  0  0  0  0  0  0  0  0  0  0
   45.7602  -45.9370    3.2367 C   0  0  0  0  0  0  0  0  0  0  0  0
   46.7336  -46.8699    3.5207 C   0  0  0  0  0  0  0  0  0  0  0  0
   47.1231  -47.5229    2.0023 S   0  0  0  0  0  0  0  0  0  0  0  0
   46.0594  -46.6160    1.0359 C   0  0  0  0  0  0  0  0  0  0  0  0
   45.4098  -45.8106    1.9310 C   0  0  0  0  0  0  0  0  0  0  0  0
   44.3420  -44.9482    1.2561 C   0  0  0  0  0  0  0  0  0  0  0  0
   43.4583  -45.8597    0.3736 C   0  0  0  0  0  0  0  0  0  0  0  0
   44.2469  -46.6912   -0.5736 C   0  0  0  0  0  0  0  0  0  0  0  0
   45.7250  -46.5098   -0.4296 C   0  0  0  0  0  0  0  0  0  0  0  0
   42.8358  -45.8240    6.8917 N   0  0  0  0  0  0  0  0  0  0  0  0
  1  2  1  0  0  0  0
  2  3  2  0  0  0  0
  3  4  1  0  0  0  0
  4  5  2  0  0  0  0
  5  6  1  0  0  0  0
  6  7  2  0  0  0  0
  7  8  1  0  0  0  0
  7  2  1  0  0  0  0
  8  9  2  0  0  0  0
  9 10  1  0  0  0  0
 10 11  1  0  0  0  0
 11 12  1  0  0  0  0
 11 25  2  0  0  0  0
 12 13  1  0  0  0  0
 13 14  1  0  0  0  0
 14 15  2  0  0  0  0
 14 16  1  0  0  0  0
 16 17  2  0  0  0  0
 17 18  1  0  0  0  0
 18 19  1  0  0  0  0
 19 20  2  0  0  0  0
 20 21  1  0  0  0  0
 20 16  1  0  0  0  0
 21 22  1  0  0  0  0
 22 23  1  0  0  0  0
 23 24  1  0  0  0  0
 24 19  1  0  0  0  0
 25  8  1  0  0  0  0
M  END
>  <CHROM.1>
3.98651906,157.10570152,96.22439676,-9.85139200,43.42593112,-46.23462455
4.90384595,-2.31594090,-0.42084848,-1.87738684

>  <Name>
design_0

>  <RI>
0

>  <Rbt.Current_Directory>
/home/ziqiaoxu/icml18-jtnn/VAEdesign

>  <Rbt.Executable>
rbdock ($Id: //depot/dev/client3/rdock/2013.1/src/exe/rbdock.cxx#4 $)

>  <Rbt.Library>
libRbt.so (2013.1, Build901 2013/11/27)

>  <Rbt.Parameter_File>
/export/apps/rDock/src/rDock_2013.1_src//data/scripts/dock.prm

>  <Rbt.Receptor>
/home/ziqiaoxu/icml18-jtnn/VAEdesign/targets/RdRp-SARS-CoV-2/pocket_docking.prm

>  <SCORE>
-23.1506

>  <SCORE.INTER>
-22.0622

>  <SCORE.INTER.CONST>
1

>  <SCORE.INTER.POLAR>
-0.894427

>  <SCORE.INTER.REPUL>
0

>  <SCORE.INTER.ROT>
4

>  <SCORE.INTER.VDW>
-28.4211

>  <SCORE.INTER.norm>
-0.882487

>  <SCORE.INTRA>
-1.08844

>  <SCORE.INTRA.DIHEDRAL>
-3.09454

>  <SCORE.INTRA.DIHEDRAL.0>
5.85473

>  <SCORE.INTRA.POLAR>
0

>  <SCORE.INTRA.POLAR.0>
0

>  <SCORE.INTRA.REPUL>
0

>  <SCORE.INTRA.REPUL.0>
0

>  <SCORE.INTRA.VDW>
0.458827

>  <SCORE.INTRA.VDW.0>
-1.08678

>  <SCORE.INTRA.norm>
-0.0435376

>  <SCORE.RESTR>
0

>  <SCORE.RESTR.CAVITY>
0

>  <SCORE.RESTR.norm>
0

>  <SCORE.SYSTEM>
0

>  <SCORE.SYSTEM.CONST>
0

>  <SCORE.SYSTEM.DIHEDRAL>
0

>  <SCORE.SYSTEM.norm>
0

>  <SCORE.heavy>
25

>  <SCORE.norm>
-0.926024

$$$$
design_3
 OpenBabel05252019093D

 23 24  0  0  0  0  0  0  0  0999 V2000
   35.1538  -40.2381    5.9556 C   0  0  0  0  0  0  0  0  0  0  0  0
   36.1082  -41.3954    6.1704 C   0  0  0  0  0  0  0  0  0  0  0  0
   37.1958  -41.0492    6.6817 O   0  0  0  0  0  0  0  0  0  0  0  0
   35.6968  -42.6707    5.7940 N   0  0  0  0  0  0  0  0  0  0  0  0
   36.3938  -43.8948    5.8903 C   0  0  0  0  0  0  0  0  0  0  0  0
   37.6517  -43.9794    6.3928 C   0  0  0  0  0  0  0  0  0  0  0  0
   38.3395  -45.1942    6.4867 C   0  0  0  0  0  0  0  0  0  0  0  0
   37.7575  -46.3631    6.0676 C   0  0  0  0  0  0  0  0  0  0  0  0
   38.6431  -47.8495    6.2006 S   0  0  0  0  0  0  0  0  0  0  0  0
   39.8307  -47.7613    5.2699 O   0  0  0  0  0  0  0  0  0  0  0  0
   37.7204  -48.9652    5.7819 O   0  0  0  0  0  0  0  0  0  0  0  0
   39.2650  -48.1115    7.8423 C   0  0  0  0  0  0  0  0  0  0  0  0
   40.2433  -47.0468    8.1820 C   0  0  0  0  0  0  0  0  0  0  0  0
   41.3260  -46.8194    7.3740 C   0  0  0  0  0  0  0  0  0  0  0  0
   42.2715  -45.8429    7.6367 C   0  0  0  0  0  0  0  0  0  0  0  0
   43.4459  -45.6159    6.7359 C   0  0  0  0  0  0  0  0  0  0  0  0
   42.1138  -45.0620    8.7680 C   0  0  0  0  0  0  0  0  0  0  0  0
   43.1045  -44.0110    9.0779 C   0  0  0  0  0  0  0  0  0  0  0  0
   41.0257  -45.2729    9.6020 C   0  0  0  0  0  0  0  0  0  0  0  0
   40.9191  -44.3987   10.7976 C   0  0  0  0  0  0  0  0  0  0  0  0
   40.1130  -46.2510    9.3040 C   0  0  0  0  0  0  0  0  0  0  0  0
   36.4825  -46.2798    5.5579 C   0  0  0  0  0  0  0  0  0  0  0  0
   35.8058  -45.0856    5.4654 C   0  0  0  0  0  0  0  0  0  0  0  0
  1  2  1  0  0  0  0
  2  3  2  0  0  0  0
  2  4  1  0  0  0  0
  4  5  1  0  0  0  0
  5  6  2  0  0  0  0
  6  7  1  0  0  0  0
  7  8  2  0  0  0  0
  8  9  1  0  0  0  0
  8 22  1  0  0  0  0
  9 10  2  0  0  0  0
  9 11  2  0  0  0  0
  9 12  1  0  0  0  0
 12 13  1  0  0  0  0
 13 14  2  0  0  0  0
 14 15  1  0  0  0  0
 15 16  1  0  0  0  0
 15 17  2  0  0  0  0
 17 18  1  0  0  0  0
 17 19  1  0  0  0  0
 19 20  1  0  0  0  0
 19 21  2  0  0  0  0
 21 13  1  0  0  0  0
 22 23  2  0  0  0  0
 23  5  1  0  0  0  0
M  END
>  <CHROM.1>
-0.51490377,-65.53938414,-63.67667361,-55.29190869,38.95315663,-45.31311793
7.01633856,-2.67005494,0.51091634,-2.88330500

>  <Name>
design_3

>  <RI>
0

>  <Rbt.Current_Directory>
/home/ziqiaoxu/icml18-jtnn/VAEdesign

>  <Rbt.Executable>
rbdock ($Id: //depot/dev/client3/rdock/2013.1/src/exe/rbdock.cxx#4 $)

>  <Rbt.Library>
libRbt.so (2013.1, Build901 2013/11/27)

>  <Rbt.Parameter_File>
/export/apps/rDock/src/rDock_2013.1_src//data/scripts/dock.prm

>  <Rbt.Receptor>
/home/ziqiaoxu/icml18-jtnn/VAEdesign/targets/RdRp-SARS-CoV-2/pocket_docking.prm

>  <SCORE>
-19.238

>  <SCORE.INTER>
-19.197

>  <SCORE.INTER.CONST>
1

>  <SCORE.INTER.POLAR>
-0.363195

>  <SCORE.INTER.REPUL>
0.205638

>  <SCORE.INTER.ROT>
4

>  <SCORE.INTER.VDW>
-28.3903

>  <SCORE.INTER.norm>
-0.834653

>  <SCORE.INTRA>
-0.0410087

>  <SCORE.INTRA.DIHEDRAL>
0.0465965

>  <SCORE.INTRA.DIHEDRAL.0>
1.92298

>  <SCORE.INTRA.POLAR>
0

>  <SCORE.INTRA.POLAR.0>
0

>  <SCORE.INTRA.REPUL>
0

>  <SCORE.INTRA.REPUL.0>
0

>  <SCORE.INTRA.VDW>
-0.0643069

>  <SCORE.INTRA.VDW.0>
-2.10028

>  <SCORE.INTRA.norm>
-0.00178299

>  <SCORE.RESTR>
0

>  <SCORE.RESTR.CAVITY>
0

>  <SCORE.RESTR.norm>
0

>  <SCORE.SYSTEM>
0

>  <SCORE.SYSTEM.CONST>
0

>  <SCORE.SYSTEM.DIHEDRAL>
0

>  <SCORE.SYSTEM.norm>
0

>  <SCORE.heavy>
23

>  <SCORE.norm>
-0.836436

$$$$
design_14
 OpenBabel05252019093D

 23 24  0  0  0  0  0  0  0  0999 V2000
   41.7345  -44.2450   10.4402 C   0  0  0  0  0  0  0  0  0  0  0  0
   41.0733  -45.2932    9.6463 C   0  0  0  0  0  0  0  0  0  0  0  0
   41.6430  -45.7463    8.4774 C   0  0  0  0  0  0  0  0  0  0  0  0
   41.0066  -46.7395    7.7349 C   0  0  0  0  0  0  0  0  0  0  0  0
   39.8089  -47.2952    8.1322 C   0  0  0  0  0  0  0  0  0  0  0  0
   39.0257  -48.5444    7.1819 S   0  0  0  0  0  0  0  0  0  0  0  0
   38.3286  -49.5114    8.0862 O   0  0  0  0  0  0  0  0  0  0  0  0
   40.0660  -49.3499    6.4186 O   0  0  0  0  0  0  0  0  0  0  0  0
   37.8946  -47.9074    6.0742 N   0  0  0  0  0  0  0  0  0  0  0  0
   38.3635  -46.6273    5.6023 C   0  0  0  0  0  0  0  0  0  0  0  0
   37.4755  -46.0544    4.5281 C   0  0  0  0  0  0  0  0  0  0  0  0
   36.6966  -44.9270    5.1268 C   0  0  0  0  0  0  0  0  0  0  0  0
   35.4840  -45.0931    5.3133 O   0  0  0  0  0  0  0  0  0  0  0  0
   37.3474  -43.7479    5.4498 N   0  0  0  0  0  0  0  0  0  0  0  0
   36.7413  -42.6155    6.0223 C   0  0  0  0  0  0  0  0  0  0  0  0
   37.6362  -41.6604    6.5515 C   0  0  0  0  0  0  0  0  0  0  0  0
   37.1606  -40.5239    7.1513 C   0  0  0  0  0  0  0  0  0  0  0  0
   35.7965  -40.3145    7.2372 C   0  0  0  0  0  0  0  0  0  0  0  0
   34.8944  -41.2248    6.7323 C   0  0  0  0  0  0  0  0  0  0  0  0
   33.4391  -40.9764    6.8372 C   0  0  0  0  0  0  0  0  0  0  0  0
   35.3998  -42.3751    6.1259 C   0  0  0  0  0  0  0  0  0  0  0  0
   39.2600  -46.8235    9.3067 C   0  0  0  0  0  0  0  0  0  0  0  0
   39.8856  -45.8283   10.0621 C   0  0  0  0  0  0  0  0  0  0  0  0
  1  2  1  0  0  0  0
  2  3  2  0  0  0  0
  3  4  1  0  0  0  0
  4  5  2  0  0  0  0
  5  6  1  0  0  0  0
  5 22  1  0  0  0  0
  6  7  2  0  0  0  0
  6  8  2  0  0  0  0
  6  9  1  0  0  0  0
  9 10  1  0  0  0  0
 10 11  1  0  0  0  0
 11 12  1  0  0  0  0
 12 13  2  0  0  0  0
 12 14  1  0  0  0  0
 14 15  1  0  0  0  0
 15 16  2  0  0  0  0
 16 17  1  0  0  0  0
 17 18  2  0  0  0  0
 18 19  1  0  0  0  0
 19 20  1  0  0  0  0
 19 21  2  0  0  0  0
 21 15  1  0  0  0  0
 22 23  2  0  0  0  0
 23  2  1  0  0  0  0
M  END
>  <CHROM.1>
145.51794916,33.85567621,175.03373066,106.62427117,-109.05100945,165.69400890
38.13730294,-45.22365814,7.11488732,-0.76660553,-0.68363967,0.34730683

>  <Name>
design_14

>  <RI>
0

>  <Rbt.Current_Directory>
/home/ziqiaoxu/icml18-jtnn/VAEdesign

>  <Rbt.Executable>
rbdock ($Id: //depot/dev/client3/rdock/2013.1/src/exe/rbdock.cxx#4 $)

>  <Rbt.Library>
libRbt.so (2013.1, Build901 2013/11/27)

>  <Rbt.Parameter_File>
/export/apps/rDock/src/rDock_2013.1_src//data/scripts/dock.prm

>  <Rbt.Receptor>
/home/ziqiaoxu/icml18-jtnn/VAEdesign/targets/RdRp-SARS-CoV-2/pocket_docking.prm

>  <SCORE>
-18.2743

>  <SCORE.INTER>
-18.7284

>  <SCORE.INTER.CONST>
1

>  <SCORE.INTER.POLAR>
-0.512063

>  <SCORE.INTER.REPUL>
0

>  <SCORE.INTER.ROT>
6

>  <SCORE.INTER.VDW>
-28.3874

>  <SCORE.INTER.norm>
-0.814278

>  <SCORE.INTRA>
0.454143

>  <SCORE.INTRA.DIHEDRAL>
5.28259

>  <SCORE.INTRA.DIHEDRAL.0>
3.67099

>  <SCORE.INTRA.POLAR>
0

>  <SCORE.INTRA.POLAR.0>
0

>  <SCORE.INTRA.REPUL>
0

>  <SCORE.INTRA.REPUL.0>
0

>  <SCORE.INTRA.VDW>
-2.18715

>  <SCORE.INTRA.VDW.0>
0.603792

>  <SCORE.INTRA.norm>
0.0197454

>  <SCORE.RESTR>
0

>  <SCORE.RESTR.CAVITY>
0

>  <SCORE.RESTR.norm>
0

>  <SCORE.SYSTEM>
0

>  <SCORE.SYSTEM.CONST>
0

>  <SCORE.SYSTEM.DIHEDRAL>
0

>  <SCORE.SYSTEM.norm>
0

>  <SCORE.heavy>
23

>  <SCORE.norm>
-0.794533

$$$$
design_6
 OpenBabel05252019093D

 28 31  0  0  0  0  0  0  0  0999 V2000
   41.4988  -44.6666    2.8563 C   0  0  0  0  0  0  0  0  0  0  0  0
   40.0852  -45.0566    3.0845 C   0  0  0  0  0  0  0  0  0  0  0  0
   39.3510  -45.1233    4.2305 C   0  0  0  0  0  0  0  0  0  0  0  0
   38.0615  -45.5482    3.9071 C   0  0  0  0  0  0  0  0  0  0  0  0
   37.0004  -45.7779    4.9110 C   0  0  0  0  0  0  0  0  0  0  0  0
   37.1010  -47.1410    5.5047 C   0  0  0  0  0  0  0  0  0  0  0  0
   38.3024  -47.4647    6.2639 C   0  0  0  0  0  0  0  0  0  0  0  0
   39.0437  -48.4041    5.9474 O   0  0  0  0  0  0  0  0  0  0  0  0
   38.7041  -46.7157    7.4284 N   0  0  0  0  0  0  0  0  0  0  0  0
   39.9021  -47.0494    8.1752 C   0  0  2  0  0  0  0  0  0  0  0  0
   39.7612  -46.5165    9.5418 C   0  0  0  0  0  0  0  0  0  0  0  0
   40.6474  -45.4008    9.9419 C   0  0  0  0  0  0  0  0  0  0  0  0
   40.9961  -44.5524    8.7095 C   0  0  0  0  0  0  0  0  0  0  0  0
   41.7575  -45.4505    7.8748 N   0  0  0  0  0  0  0  0  0  0  0  0
   43.1150  -45.1366    7.5926 C   0  0  0  0  0  0  0  0  0  0  0  0
   43.6890  -45.3749    6.3643 C   0  0  0  0  0  0  0  0  0  0  0  0
   45.0209  -45.0473    6.1516 C   0  0  0  0  0  0  0  0  0  0  0  0
   45.6610  -45.2697    4.9110 N   0  0  0  0  0  0  0  0  0  0  0  0
   47.0779  -45.2038    4.6717 C   0  0  0  0  0  0  0  0  0  0  0  0
   47.2774  -46.3363    3.6630 C   0  0  0  0  0  0  0  0  0  0  0  0
   46.0926  -46.0813    2.7284 C   0  0  0  0  0  0  0  0  0  0  0  0
   45.0241  -45.6003    3.6648 C   0  0  0  0  0  0  0  0  0  0  0  0
   45.7252  -44.5005    7.1581 N   0  0  0  0  0  0  0  0  0  0  0  0
   45.1967  -44.2600    8.3523 C   0  0  0  0  0  0  0  0  0  0  0  0
   43.9096  -44.5780    8.5537 N   0  0  0  0  0  0  0  0  0  0  0  0
   41.0842  -46.6069    7.3871 C   0  0  0  0  0  0  0  0  0  0  0  0
   38.0592  -45.7226    2.5975 N   0  0  0  0  0  0  0  0  0  0  0  0
   39.2651  -45.4315    2.0888 N   0  0  0  0  0  0  0  0  0  0  0  0
  1  2  1  0  0  0  0
  2  3  1  0  0  0  0
  3  4  2  0  0  0  0
  4  5  1  0  0  0  0
  4 27  1  0  0  0  0
  5  6  1  0  0  0  0
  6  7  1  0  0  0  0
  7  8  2  0  0  0  0
  7  9  1  0  0  0  0
 10  9  1  6  0  0  0
 10 11  1  0  0  0  0
 11 12  1  0  0  0  0
 12 13  1  0  0  0  0
 13 14  1  0  0  0  0
 14 15  1  0  0  0  0
 14 26  1  0  0  0  0
 15 16  2  0  0  0  0
 16 17  1  0  0  0  0
 17 18  1  0  0  0  0
 17 23  2  0  0  0  0
 18 19  1  0  0  0  0
 19 20  1  0  0  0  0
 20 21  1  0  0  0  0
 21 22  1  0  0  0  0
 22 18  1  0  0  0  0
 23 24  1  0  0  0  0
 24 25  2  0  0  0  0
 25 15  1  0  0  0  0
 26 10  1  0  0  0  0
 27 28  1  0  0  0  0
 28  2  2  0  0  0  0
M  END
>  <CHROM.1>
-84.26331851,63.07102407,-120.95270512,-157.30256187,-142.32614841,-167.43289832
41.71120339,-45.73201365,5.85634352,0.01961429,-0.15014834,-1.56904000

>  <Name>
design_6

>  <RI>
0

>  <Rbt.Current_Directory>
/home/ziqiaoxu/icml18-jtnn/VAEdesign

>  <Rbt.Executable>
rbdock ($Id: //depot/dev/client3/rdock/2013.1/src/exe/rbdock.cxx#4 $)

>  <Rbt.Library>
libRbt.so (2013.1, Build901 2013/11/27)

>  <Rbt.Parameter_File>
/export/apps/rDock/src/rDock_2013.1_src//data/scripts/dock.prm

>  <Rbt.Receptor>
/home/ziqiaoxu/icml18-jtnn/VAEdesign/targets/RdRp-SARS-CoV-2/pocket_docking.prm

>  <SCORE>
-17.6671

>  <SCORE.INTER>
-18.3329

>  <SCORE.INTER.CONST>
1

>  <SCORE.INTER.POLAR>
-0.396178

>  <SCORE.INTER.REPUL>
0

>  <SCORE.INTER.ROT>
6

>  <SCORE.INTER.VDW>
-28.3859

>  <SCORE.INTER.norm>
-0.654747

>  <SCORE.INTRA>
0.665871

>  <SCORE.INTRA.DIHEDRAL>
5.12349

>  <SCORE.INTRA.DIHEDRAL.0>
4.26562

>  <SCORE.INTRA.POLAR>
0

>  <SCORE.INTRA.POLAR.0>
0

>  <SCORE.INTRA.REPUL>
0

>  <SCORE.INTRA.REPUL.0>
0

>  <SCORE.INTRA.VDW>
-1.89587

>  <SCORE.INTRA.VDW.0>
-0.705279

>  <SCORE.INTRA.norm>
0.0237811

>  <SCORE.RESTR>
0

>  <SCORE.RESTR.CAVITY>
0

>  <SCORE.RESTR.norm>
0

>  <SCORE.SYSTEM>
0

>  <SCORE.SYSTEM.CONST>
0

>  <SCORE.SYSTEM.DIHEDRAL>
0

>  <SCORE.SYSTEM.norm>
0

>  <SCORE.heavy>
28

>  <SCORE.norm>
-0.630966

$$$$
design_4
 OpenBabel05252019093D

 25 27  0  0  0  0  0  0  0  0999 V2000
   40.3788  -38.4785    2.0478 N   0  0  0  0  0  0  0  0  0  0  0  0
   40.0504  -37.4661    2.9664 C   0  0  0  0  0  0  0  0  0  0  0  0
   39.2301  -36.5735    2.6011 O   0  0  0  0  0  0  0  0  0  0  0  0
   40.6718  -37.4818    4.3169 C   0  0  0  0  0  0  0  0  0  0  0  0
   39.5508  -37.3554    5.3320 C   0  0  0  0  0  0  0  0  0  0  0  0
   39.7327  -38.3137    6.4520 C   0  0  0  0  0  0  0  0  0  0  0  0
   40.4735  -38.0145    7.5709 C   0  0  0  0  0  0  0  0  0  0  0  0
   40.6132  -38.9589    8.6006 C   0  0  0  0  0  0  0  0  0  0  0  0
   40.0111  -40.1828    8.4945 C   0  0  0  0  0  0  0  0  0  0  0  0
   40.0675  -41.1795    9.4676 N   0  0  0  0  0  0  0  0  0  0  0  0
   39.7652  -42.5227    9.2605 C   0  0  0  0  0  0  0  0  0  0  0  0
   39.4145  -42.9787    8.1662 O   0  0  0  0  0  0  0  0  0  0  0  0
   39.8673  -43.4731   10.4171 C   0  0  0  0  0  0  0  0  0  0  0  0
   41.2133  -44.1485   10.3320 C   0  0  0  0  0  0  0  0  0  0  0  0
   41.3074  -45.0700    9.2433 N   0  0  0  0  0  0  0  0  0  0  0  0
   42.3427  -45.1786    8.4078 C   0  0  0  0  0  0  0  0  0  0  0  0
   42.0981  -46.1385    7.5105 N   0  0  0  0  0  0  0  0  0  0  0  0
   40.8761  -46.6529    7.7830 C   0  0  0  0  0  0  0  0  0  0  0  0
   40.1247  -47.6513    7.1929 C   0  0  0  0  0  0  0  0  0  0  0  0
   38.8816  -47.9877    7.6775 C   0  0  0  0  0  0  0  0  0  0  0  0
   38.4005  -47.3097    8.7630 C   0  0  0  0  0  0  0  0  0  0  0  0
   39.1254  -46.3127    9.3698 C   0  0  0  0  0  0  0  0  0  0  0  0
   40.3880  -45.9707    8.8778 C   0  0  0  0  0  0  0  0  0  0  0  0
   39.2645  -40.4525    7.3403 C   0  0  0  0  0  0  0  0  0  0  0  0
   39.1258  -39.5451    6.3419 C   0  0  0  0  0  0  0  0  0  0  0  0
  1  2  1  0  0  0  0
  2  3  2  0  0  0  0
  2  4  1  0  0  0  0
  4  5  1  0  0  0  0
  5  6  1  0  0  0  0
  6  7  2  0  0  0  0
  7  8  1  0  0  0  0
  8  9  2  0  0  0  0
  9 10  1  0  0  0  0
  9 24  1  0  0  0  0
 10 11  1  0  0  0  0
 11 12  2  0  0  0  0
 11 13  1  0  0  0  0
 13 14  1  0  0  0  0
 14 15  1  0  0  0  0
 15 16  1  0  0  0  0
 16 17  2  0  0  0  0
 17 18  1  0  0  0  0
 18 19  2  0  0  0  0
 19 20  1  0  0  0  0
 20 21  2  0  0  0  0
 21 22  1  0  0  0  0
 22 23  2  0  0  0  0
 23 15  1  0  0  0  0
 23 18  1  0  0  0  0
 24 25  2  0  0  0  0
 25  6  1  0  0  0  0
M  END
>  <CHROM.1>
-128.98287394,135.54812878,87.82379641,-162.87584576,-96.99328916,-70.59514347
135.78150419,40.11990871,-42.14193284,7.32134302,2.51908289,-1.52919681,0.48816098

>  <Name>
design_4

>  <RI>
0

>  <Rbt.Current_Directory>
/home/ziqiaoxu/icml18-jtnn/VAEdesign

>  <Rbt.Executable>
rbdock ($Id: //depot/dev/client3/rdock/2013.1/src/exe/rbdock.cxx#4 $)

>  <Rbt.Library>
libRbt.so (2013.1, Build901 2013/11/27)

>  <Rbt.Parameter_File>
/export/apps/rDock/src/rDock_2013.1_src//data/scripts/dock.prm

>  <Rbt.Receptor>
/home/ziqiaoxu/icml18-jtnn/VAEdesign/targets/RdRp-SARS-CoV-2/pocket_docking.prm

>  <SCORE>
-21.2371

>  <SCORE.INTER>
-21.8828

>  <SCORE.INTER.CONST>
1

>  <SCORE.INTER.POLAR>
-1.73547

>  <SCORE.INTER.REPUL>
0

>  <SCORE.INTER.ROT>
7

>  <SCORE.INTER.VDW>
-28.3822

>  <SCORE.INTER.norm>
-0.875311

>  <SCORE.INTRA>
0.645016

>  <SCORE.INTRA.DIHEDRAL>
7.52213

>  <SCORE.INTRA.DIHEDRAL.0>
6.75387

>  <SCORE.INTRA.POLAR>
0

>  <SCORE.INTRA.POLAR.0>
0

>  <SCORE.INTRA.REPUL>
0

>  <SCORE.INTRA.REPUL.0>
0

>  <SCORE.INTRA.VDW>
-3.11605

>  <SCORE.INTRA.VDW.0>
2.53747

>  <SCORE.INTRA.norm>
0.0258006

>  <SCORE.RESTR>
0.000605309

>  <SCORE.RESTR.CAVITY>
0.000605309

>  <SCORE.RESTR.norm>
2.42124e-05

>  <SCORE.SYSTEM>
0

>  <SCORE.SYSTEM.CONST>
0

>  <SCORE.SYSTEM.DIHEDRAL>
0

>  <SCORE.SYSTEM.norm>
0

>  <SCORE.heavy>
25

>  <SCORE.norm>
-0.849486

$$$$
design_12
 OpenBabel05252019093D

 26 28  0  0  0  0  0  0  0  0999 V2000
   39.3340  -48.8566    6.3196 C   0  0  0  0  0  0  0  0  0  0  0  0
   39.7726  -47.8278    7.3091 C   0  0  0  0  0  0  0  0  0  0  0  0
   39.0863  -47.6038    8.4842 C   0  0  0  0  0  0  0  0  0  0  0  0
   39.5114  -46.6470    9.3832 C   0  0  0  0  0  0  0  0  0  0  0  0
   40.6311  -45.8709    9.1607 C   0  0  0  0  0  0  0  0  0  0  0  0
   41.0542  -44.8549   10.1500 C   0  0  0  0  0  0  0  0  0  0  0  0
   40.0223  -43.8225   10.4223 C   0  0  0  0  0  0  0  0  0  0  0  0
   39.9097  -42.9294    9.2067 C   0  0  0  0  0  0  0  0  0  0  0  0
   39.5937  -43.5063    8.1504 O   0  0  0  0  0  0  0  0  0  0  0  0
   40.1665  -41.5479    9.3679 N   0  0  0  0  0  0  0  0  0  0  0  0
   40.1017  -40.6137    8.3160 C   0  0  0  0  0  0  0  0  0  0  0  0
   39.8227  -40.8895    7.0077 C   0  0  0  0  0  0  0  0  0  0  0  0
   39.7491  -39.9183    6.0324 C   0  0  0  0  0  0  0  0  0  0  0  0
   39.9569  -38.5619    6.3090 C   0  0  0  0  0  0  0  0  0  0  0  0
   39.8628  -37.5893    5.2382 C   0  0  0  0  0  0  0  0  0  0  0  0
   39.4343  -36.4101    5.6298 O   0  0  0  0  0  0  0  0  0  0  0  0
   40.1361  -37.6692    3.8993 N   0  0  0  0  0  0  0  0  0  0  0  0
   40.6124  -38.7621    3.1058 C   0  0  0  0  0  0  0  0  0  0  0  0
   40.6855  -38.3240    1.6380 C   0  0  0  0  0  0  0  0  0  0  0  0
   41.4900  -37.2250    1.4733 O   0  0  0  0  0  0  0  0  0  0  0  0
   41.2523  -36.2122    2.3788 C   0  0  0  0  0  0  0  0  0  0  0  0
   39.9150  -36.4338    3.0987 C   0  0  0  0  0  0  0  0  0  0  0  0
   40.2372  -38.2887    7.6206 C   0  0  0  0  0  0  0  0  0  0  0  0
   40.3113  -39.2568    8.5984 C   0  0  0  0  0  0  0  0  0  0  0  0
   41.3181  -46.0955    7.9839 C   0  0  0  0  0  0  0  0  0  0  0  0
   40.8922  -47.0523    7.0860 C   0  0  0  0  0  0  0  0  0  0  0  0
  1  2  1  0  0  0  0
  2  3  2  0  0  0  0
  3  4  1  0  0  0  0
  4  5  2  0  0  0  0
  5  6  1  0  0  0  0
  5 25  1  0  0  0  0
  6  7  1  0  0  0  0
  7  8  1  0  0  0  0
  8  9  2  0  0  0  0
  8 10  1  0  0  0  0
 10 11  1  0  0  0  0
 11 12  2  0  0  0  0
 12 13  1  0  0  0  0
 13 14  2  0  0  0  0
 14 15  1  0  0  0  0
 14 23  1  0  0  0  0
 15 16  2  0  0  0  0
 15 17  1  0  0  0  0
 17 18  1  0  0  0  0
 18 19  1  0  0  0  0
 19 20  1  0  0  0  0
 20 21  1  0  0  0  0
 21 22  1  0  0  0  0
 22 17  1  0  0  0  0
 23 24  2  0  0  0  0
 24 11  1  0  0  0  0
 25 26  2  0  0  0  0
 26  2  1  0  0  0  0
M  END
>  <CHROM.1>
-58.88676146,-71.25002654,59.45940259,-1.73435329,148.81757526,40.19161363
-41.56462789,6.59394980,-2.06128157,1.49018309,-0.00030075

>  <Name>
design_12

>  <RI>
0

>  <Rbt.Current_Directory>
/home/ziqiaoxu/icml18-jtnn/VAEdesign

>  <Rbt.Executable>
rbdock ($Id: //depot/dev/client3/rdock/2013.1/src/exe/rbdock.cxx#4 $)

>  <Rbt.Library>
libRbt.so (2013.1, Build901 2013/11/27)

>  <Rbt.Parameter_File>
/export/apps/rDock/src/rDock_2013.1_src//data/scripts/dock.prm

>  <Rbt.Receptor>
/home/ziqiaoxu/icml18-jtnn/VAEdesign/targets/RdRp-SARS-CoV-2/pocket_docking.prm

>  <SCORE>
-18.9379

>  <SCORE.INTER>
-18.3089

>  <SCORE.INTER.CONST>
1

>  <SCORE.INTER.POLAR>
-0.141819

>  <SCORE.INTER.REPUL>
0.0198288

>  <SCORE.INTER.ROT>
5

>  <SCORE.INTER.VDW>
-28.3259

>  <SCORE.INTER.norm>
-0.704189

>  <SCORE.INTRA>
-0.645208

>  <SCORE.INTRA.DIHEDRAL>
4.35524

>  <SCORE.INTRA.DIHEDRAL.0>
3.02517

>  <SCORE.INTRA.POLAR>
0

>  <SCORE.INTRA.POLAR.0>
0

>  <SCORE.INTRA.REPUL>
0

>  <SCORE.INTRA.REPUL.0>
0

>  <SCORE.INTRA.VDW>
-2.82283

>  <SCORE.INTRA.VDW.0>
2.12161

>  <SCORE.INTRA.norm>
-0.0248157

>  <SCORE.RESTR>
0.0162481

>  <SCORE.RESTR.CAVITY>
0.0162481

>  <SCORE.RESTR.norm>
0.000624926

>  <SCORE.SYSTEM>
0

>  <SCORE.SYSTEM.CONST>
0

>  <SCORE.SYSTEM.DIHEDRAL>
0

>  <SCORE.SYSTEM.norm>
0

>  <SCORE.heavy>
26

>  <SCORE.norm>
-0.72838

$$$$
design_2
 OpenBabel05252019093D

 25 26  0  0  0  0  0  0  0  0999 V2000
   41.9695  -44.7232    1.9041 C   0  0  0  0  0  0  0  0  0  0  0  0
   43.3131  -45.2764    1.4792 C   0  0  0  0  0  0  0  0  0  0  0  0
   43.5629  -45.4194    0.1411 C   0  0  0  0  0  0  0  0  0  0  0  0
   44.7397  -45.9489   -0.3565 C   0  0  0  0  0  0  0  0  0  0  0  0
   45.6694  -46.3293    0.5791 C   0  0  0  0  0  0  0  0  0  0  0  0
   45.4642  -46.2044    1.9181 C   0  0  0  0  0  0  0  0  0  0  0  0
   44.2698  -45.6670    2.4144 C   0  0  0  0  0  0  0  0  0  0  0  0
   44.0184  -45.4507    3.7304 N   0  0  0  0  0  0  0  0  0  0  0  0
   44.9149  -45.6023    4.8724 C   0  0  0  0  0  0  0  0  0  0  0  0
   46.1006  -46.0144    4.6341 O   0  0  0  0  0  0  0  0  0  0  0  0
   44.4830  -45.3078    6.1290 N   0  0  0  0  0  0  0  0  0  0  0  0
   44.0428  -45.0061    7.4227 C   0  0  0  0  0  0  0  0  0  0  0  0
   42.6868  -45.5228    7.6595 C   0  0  0  0  0  0  0  0  0  0  0  0
   42.1067  -45.1913    8.8895 C   0  0  0  0  0  0  0  0  0  0  0  0
   40.8412  -45.6611    9.2036 C   0  0  0  0  0  0  0  0  0  0  0  0
   40.1284  -46.4443    8.3507 C   0  0  0  0  0  0  0  0  0  0  0  0
   40.7105  -46.7895    7.0913 C   0  0  0  0  0  0  0  0  0  0  0  0
   39.8777  -47.8543    6.0369 S   0  0  0  0  0  0  0  0  0  0  0  0
   39.8773  -49.2280    6.7609 O   0  0  0  0  0  0  0  0  0  0  0  0
   40.6402  -48.0426    4.7576 O   0  0  0  0  0  0  0  0  0  0  0  0
   38.2526  -47.4588    5.7832 N   0  0  0  0  0  0  0  0  0  0  0  0
   37.9157  -46.0956    5.5938 C   0  0  0  0  0  0  0  0  0  0  0  0
   38.2630  -45.7199    4.1316 C   0  0  0  0  0  0  0  0  0  0  0  0
   36.4521  -45.8000    5.7884 C   0  0  0  0  0  0  0  0  0  0  0  0
   41.9671  -46.3042    6.8112 C   0  0  0  0  0  0  0  0  0  0  0  0
  1  2  1  0  0  0  0
  2  3  2  0  0  0  0
  3  4  1  0  0  0  0
  4  5  2  0  0  0  0
  5  6  1  0  0  0  0
  6  7  2  0  0  0  0
  7  8  1  0  0  0  0
  7  2  1  0  0  0  0
  8  9  1  0  0  0  0
  9 10  2  0  0  0  0
  9 11  1  0  0  0  0
 11 12  1  0  0  0  0
 12 13  1  0  0  0  0
 13 14  2  0  0  0  0
 14 15  1  0  0  0  0
 15 16  2  0  0  0  0
 16 17  1  0  0  0  0
 17 18  1  0  0  0  0
 17 25  2  0  0  0  0
 18 19  2  0  0  0  0
 18 20  2  0  0  0  0
 18 21  1  0  0  0  0
 21 22  1  0  0  0  0
 22 23  1  0  0  0  0
 22 24  1  0  0  0  0
 25 13  1  0  0  0  0
M  END
>  <CHROM.1>
-171.10461192,-135.92715350,-175.39693893,-67.06215559,42.03811748,78.85073439
41.91502310,-46.24635268,4.94392741,0.73473959,-0.19828415,-1.56978427

>  <Name>
design_2

>  <RI>
0

>  <Rbt.Current_Directory>
/home/ziqiaoxu/icml18-jtnn/VAEdesign

>  <Rbt.Executable>
rbdock ($Id: //depot/dev/client3/rdock/2013.1/src/exe/rbdock.cxx#4 $)

>  <Rbt.Library>
libRbt.so (2013.1, Build901 2013/11/27)

>  <Rbt.Parameter_File>
/export/apps/rDock/src/rDock_2013.1_src//data/scripts/dock.prm

>  <Rbt.Receptor>
/home/ziqiaoxu/icml18-jtnn/VAEdesign/targets/RdRp-SARS-CoV-2/pocket_docking.prm

>  <SCORE>
-21.0916

>  <SCORE.INTER>
-20.3607

>  <SCORE.INTER.CONST>
1

>  <SCORE.INTER.POLAR>
-1.02459

>  <SCORE.INTER.REPUL>
0

>  <SCORE.INTER.ROT>
6

>  <SCORE.INTER.VDW>
-28.2771

>  <SCORE.INTER.norm>
-0.814428

>  <SCORE.INTRA>
-0.730918

>  <SCORE.INTRA.DIHEDRAL>
0.331451

>  <SCORE.INTRA.DIHEDRAL.0>
4.74417

>  <SCORE.INTRA.POLAR>
0

>  <SCORE.INTRA.POLAR.0>
0

>  <SCORE.INTRA.REPUL>
0

>  <SCORE.INTRA.REPUL.0>
0

>  <SCORE.INTRA.VDW>
-0.896643

>  <SCORE.INTRA.VDW.0>
-0.533015

>  <SCORE.INTRA.norm>
-0.0292367

>  <SCORE.RESTR>
0

>  <SCORE.RESTR.CAVITY>
0

>  <SCORE.RESTR.norm>
0

>  <SCORE.SYSTEM>
0

>  <SCORE.SYSTEM.CONST>
0

>  <SCORE.SYSTEM.DIHEDRAL>
0

>  <SCORE.SYSTEM.norm>
0

>  <SCORE.heavy>
25

>  <SCORE.norm>
-0.843665

$$$$
design_8
 OpenBabel05252019093D

 24 26  0  0  0  0  0  0  0  0999 V2000
   38.8303  -48.1844    7.7388 C   0  0  0  0  0  0  0  0  0  0  0  0
   39.9283  -47.2011    7.9360 C   0  0  0  0  0  0  0  0  0  0  0  0
   40.9521  -47.1723    7.0297 C   0  0  0  0  0  0  0  0  0  0  0  0
   41.9764  -46.2585    7.2116 C   0  0  0  0  0  0  0  0  0  0  0  0
   41.9559  -45.3928    8.2952 C   0  0  0  0  0  0  0  0  0  0  0  0
   40.9392  -45.4088    9.2104 C   0  0  0  0  0  0  0  0  0  0  0  0
   40.8691  -44.3335   10.6066 S   0  0  0  0  0  0  0  0  0  0  0  0
   39.4932  -43.2018   10.5177 C   0  0  0  0  0  0  0  0  0  0  0  0
   39.5841  -42.3662    9.2810 C   0  0  0  0  0  0  0  0  0  0  0  0
   39.5237  -43.0588    8.2085 O   0  0  0  0  0  0  0  0  0  0  0  0
   39.7193  -40.9800    9.3350 N   0  0  0  0  0  0  0  0  0  0  0  0
   39.8164  -40.0628    8.2717 C   0  0  0  0  0  0  0  0  0  0  0  0
   40.4617  -38.8448    8.5046 C   0  0  0  0  0  0  0  0  0  0  0  0
   40.5933  -37.8799    7.5149 C   0  0  0  0  0  0  0  0  0  0  0  0
   40.0991  -38.0681    6.2583 C   0  0  0  0  0  0  0  0  0  0  0  0
   40.2166  -37.1260    5.2016 N   0  0  0  0  0  0  0  0  0  0  0  0
   39.7440  -37.2368    3.9001 C   0  0  0  0  0  0  0  0  0  0  0  0
   39.1139  -38.1886    3.3897 O   0  0  0  0  0  0  0  0  0  0  0  0
   40.0096  -36.0784    2.9633 C   0  0  0  0  0  0  0  0  0  0  0  0
   41.4307  -36.0519    2.4361 C   0  0  0  0  0  0  0  0  0  0  0  0
   40.2799  -36.3948    1.5446 C   0  0  0  0  0  0  0  0  0  0  0  0
   39.4535  -39.2885    6.0310 C   0  0  0  0  0  0  0  0  0  0  0  0
   39.3152  -40.2548    7.0024 C   0  0  0  0  0  0  0  0  0  0  0  0
   39.9230  -46.3387    9.0012 C   0  0  0  0  0  0  0  0  0  0  0  0
  1  2  1  0  0  0  0
  2  3  2  0  0  0  0
  3  4  1  0  0  0  0
  4  5  2  0  0  0  0
  5  6  1  0  0  0  0
  6  7  1  0  0  0  0
  6 24  2  0  0  0  0
  7  8  1  0  0  0  0
  8  9  1  0  0  0  0
  9 10  2  0  0  0  0
  9 11  1  0  0  0  0
 11 12  1  0  0  0  0
 12 13  2  0  0  0  0
 13 14  1  0  0  0  0
 14 15  2  0  0  0  0
 15 16  1  0  0  0  0
 15 22  1  0  0  0  0
 16 17  1  0  0  0  0
 17 18  2  0  0  0  0
 17 19  1  0  0  0  0
 19 20  1  0  0  0  0
 20 21  1  0  0  0  0
 21 19  1  0  0  0  0
 22 23  2  0  0  0  0
 23 12  1  0  0  0  0
 24  2  1  0  0  0  0
M  END
>  <CHROM.1>
114.79705198,-58.89128339,62.33512206,-154.74518261,-179.93945479,77.62906544
40.19591133,-41.59584108,7.14073313,-1.12739765,1.51468211,-0.95076263

>  <Name>
design_8

>  <RI>
0

>  <Rbt.Current_Directory>
/home/ziqiaoxu/icml18-jtnn/VAEdesign

>  <Rbt.Executable>
rbdock ($Id: //depot/dev/client3/rdock/2013.1/src/exe/rbdock.cxx#4 $)

>  <Rbt.Library>
libRbt.so (2013.1, Build901 2013/11/27)

>  <Rbt.Parameter_File>
/export/apps/rDock/src/rDock_2013.1_src//data/scripts/dock.prm

>  <Rbt.Receptor>
/home/ziqiaoxu/icml18-jtnn/VAEdesign/targets/RdRp-SARS-CoV-2/pocket_docking.prm

>  <SCORE>
-20.7864

>  <SCORE.INTER>
-18.8931

>  <SCORE.INTER.CONST>
1

>  <SCORE.INTER.POLAR>
-0.595214

>  <SCORE.INTER.REPUL>
0

>  <SCORE.INTER.ROT>
6

>  <SCORE.INTER.VDW>
-28.2694

>  <SCORE.INTER.norm>
-0.787212

>  <SCORE.INTRA>
-1.9134

>  <SCORE.INTRA.DIHEDRAL>
0.479097

>  <SCORE.INTRA.DIHEDRAL.0>
7.27371

>  <SCORE.INTRA.POLAR>
0

>  <SCORE.INTRA.POLAR.0>
0

>  <SCORE.INTRA.REPUL>
0

>  <SCORE.INTRA.REPUL.0>
0

>  <SCORE.INTRA.VDW>
-2.15295

>  <SCORE.INTRA.VDW.0>
0.191017

>  <SCORE.INTRA.norm>
-0.079725

>  <SCORE.RESTR>
0.0200695

>  <SCORE.RESTR.CAVITY>
0.0200695

>  <SCORE.RESTR.norm>
0.000836229

>  <SCORE.SYSTEM>
0

>  <SCORE.SYSTEM.CONST>
0

>  <SCORE.SYSTEM.DIHEDRAL>
0

>  <SCORE.SYSTEM.norm>
0

>  <SCORE.heavy>
24

>  <SCORE.norm>
-0.866101

$$$$
design_10
 OpenBabel05252019093D

 27 30  0  0  0  0  0  0  0  0999 V2000
   45.7823  -43.4573    8.5937 C   0  0  0  0  0  0  0  0  0  0  0  0
   44.4596  -43.9500    9.0571 C   0  0  0  0  0  0  0  0  0  0  0  0
   43.8996  -43.6857   10.2342 N   0  0  0  0  0  0  0  0  0  0  0  0
   42.7441  -44.2958   10.2595 N   0  0  0  0  0  0  0  0  0  0  0  0
   42.5519  -44.9538    9.1058 C   0  0  0  0  0  0  0  0  0  0  0  0
   41.3480  -45.7447    8.7951 C   0  0  0  0  0  0  0  0  0  0  0  0
   40.2998  -45.8261    9.6884 C   0  0  0  0  0  0  0  0  0  0  0  0
   39.1850  -46.5650    9.4029 C   0  0  0  0  0  0  0  0  0  0  0  0
   39.0708  -47.2524    8.2157 C   0  0  0  0  0  0  0  0  0  0  0  0
   40.0924  -47.1957    7.3026 C   0  0  0  0  0  0  0  0  0  0  0  0
   40.0910  -47.8936    5.9949 C   0  0  0  0  0  0  0  0  0  0  0  0
   40.7629  -47.0924    5.0215 N   0  0  0  0  0  0  0  0  0  0  0  0
   40.1389  -45.9324    4.5069 C   0  0  0  0  0  0  0  0  0  0  0  0
   38.9881  -45.5883    4.9002 O   0  0  0  0  0  0  0  0  0  0  0  0
   40.8515  -45.1395    3.5115 C   0  0  0  0  0  0  0  0  0  0  0  0
   40.2728  -44.1428    2.7659 C   0  0  0  0  0  0  0  0  0  0  0  0
   41.2854  -43.6546    1.9552 C   0  0  0  0  0  0  0  0  0  0  0  0
   42.4243  -44.3736    2.2449 C   0  0  0  0  0  0  0  0  0  0  0  0
   43.7314  -44.1449    1.5773 C   0  0  0  0  0  0  0  0  0  0  0  0
   44.0152  -45.2504    0.6696 N   0  0  0  0  0  0  0  0  0  0  0  0
   45.2199  -45.5509    0.1743 C   0  0  0  0  0  0  0  0  0  0  0  0
   45.1270  -46.6641   -0.6515 C   0  0  0  0  0  0  0  0  0  0  0  0
   43.7931  -47.0156   -0.6233 C   0  0  0  0  0  0  0  0  0  0  0  0
   43.1742  -46.1414    0.1783 N   0  0  0  0  0  0  0  0  0  0  0  0
   42.1189  -45.2468    3.1778 O   0  0  0  0  0  0  0  0  0  0  0  0
   41.2167  -46.4354    7.6184 C   0  0  0  0  0  0  0  0  0  0  0  0
   43.6239  -44.7357    8.3591 N   0  0  0  0  0  0  0  0  0  0  0  0
  1  2  1  0  0  0  0
  2  3  2  0  0  0  0
  3  4  1  0  0  0  0
  4  5  1  0  0  0  0
  5  6  1  0  0  0  0
  5 27  2  0  0  0  0
  6  7  2  0  0  0  0
  7  8  1  0  0  0  0
  8  9  2  0  0  0  0
  9 10  1  0  0  0  0
 10 11  1  0  0  0  0
 10 26  2  0  0  0  0
 11 12  1  0  0  0  0
 12 13  1  0  0  0  0
 13 14  2  0  0  0  0
 13 15  1  0  0  0  0
 15 16  2  0  0  0  0
 16 17  1  0  0  0  0
 17 18  2  0  0  0  0
 18 19  1  0  0  0  0
 18 25  1  0  0  0  0
 19 20  1  0  0  0  0
 20 21  1  0  0  0  0
 21 22  2  0  0  0  0
 22 23  1  0  0  0  0
 23 24  2  0  0  0  0
 24 20  1  0  0  0  0
 25 15  1  0  0  0  0
 26  6  1  0  0  0  0
 27  2  1  0  0  0  0
M  END
>  <CHROM.1>
1.83852389,145.13762837,-73.37246067,167.87590576,-107.86201191,-161.95348012
42.10056189,-45.46982744,5.25253243,-1.77275403,-0.41845461,-1.68201986

>  <Name>
design_10

>  <RI>
0

>  <Rbt.Current_Directory>
/home/ziqiaoxu/icml18-jtnn/VAEdesign

>  <Rbt.Executable>
rbdock ($Id: //depot/dev/client3/rdock/2013.1/src/exe/rbdock.cxx#4 $)

>  <Rbt.Library>
libRbt.so (2013.1, Build901 2013/11/27)

>  <Rbt.Parameter_File>
/export/apps/rDock/src/rDock_2013.1_src//data/scripts/dock.prm

>  <Rbt.Receptor>
/home/ziqiaoxu/icml18-jtnn/VAEdesign/targets/RdRp-SARS-CoV-2/pocket_docking.prm

>  <SCORE>
-17.5779

>  <SCORE.INTER>
-17.5245

>  <SCORE.INTER.CONST>
1

>  <SCORE.INTER.POLAR>
-0.20401

>  <SCORE.INTER.REPUL>
0

>  <SCORE.INTER.ROT>
6

>  <SCORE.INTER.VDW>
-28.2308

>  <SCORE.INTER.norm>
-0.649055

>  <SCORE.INTRA>
-0.0533818

>  <SCORE.INTRA.DIHEDRAL>
-0.414608

>  <SCORE.INTRA.DIHEDRAL.0>
5.70449

>  <SCORE.INTRA.POLAR>
0

>  <SCORE.INTRA.POLAR.0>
0

>  <SCORE.INTRA.REPUL>
0

>  <SCORE.INTRA.REPUL.0>
0

>  <SCORE.INTRA.VDW>
0.153922

>  <SCORE.INTRA.VDW.0>
-2.3735

>  <SCORE.INTRA.norm>
-0.0019771

>  <SCORE.RESTR>
0

>  <SCORE.RESTR.CAVITY>
0

>  <SCORE.RESTR.norm>
0

>  <SCORE.SYSTEM>
0

>  <SCORE.SYSTEM.CONST>
0

>  <SCORE.SYSTEM.DIHEDRAL>
0

>  <SCORE.SYSTEM.norm>
0

>  <SCORE.heavy>
27

>  <SCORE.norm>
-0.651032

$$$$
design_16
 OpenBabel05252019093D

 24 26  0  0  0  0  0  0  0  0999 V2000
   43.8996  -45.7649    0.4388 C   0  0  0  0  0  0  0  0  0  0  0  0
   44.3676  -45.7165    1.7563 O   0  0  0  0  0  0  0  0  0  0  0  0
   45.5665  -46.2647    2.1743 C   0  0  0  0  0  0  0  0  0  0  0  0
   46.3675  -46.9449    1.3405 N   0  0  0  0  0  0  0  0  0  0  0  0
   47.5320  -47.4781    1.7441 C   0  0  0  0  0  0  0  0  0  0  0  0
   47.9094  -47.3175    3.0555 C   0  0  0  0  0  0  0  0  0  0  0  0
   47.1268  -46.6211    3.9815 C   0  0  0  0  0  0  0  0  0  0  0  0
   45.9383  -46.0954    3.5074 C   0  0  0  0  0  0  0  0  0  0  0  0
   45.0159  -45.3150    4.3483 C   0  0  0  0  0  0  0  0  0  0  0  0
   45.1939  -45.4314    5.7605 N   0  0  0  0  0  0  0  0  0  0  0  0
   44.4441  -44.6322    6.6474 C   0  0  0  0  0  0  0  0  0  0  0  0
   43.5990  -43.7775    6.2362 O   0  0  0  0  0  0  0  0  0  0  0  0
   44.6459  -44.7941    8.0459 N   0  0  0  0  0  0  0  0  0  0  0  0
   43.8626  -43.9601    8.9519 C   0  0  0  0  0  0  0  0  0  0  0  0
   42.5552  -44.6784    9.2369 C   0  0  0  0  0  0  0  0  0  0  0  0
   41.8831  -44.4516   10.4125 C   0  0  0  0  0  0  0  0  0  0  0  0
   40.5227  -45.4815   10.2246 S   0  0  0  0  0  0  0  0  0  0  0  0
   40.8959  -46.1179    8.6919 C   0  0  0  0  0  0  0  0  0  0  0  0
   40.1916  -47.0866    7.8446 C   0  0  0  0  0  0  0  0  0  0  0  0
   40.5228  -47.4842    6.5804 C   0  0  0  0  0  0  0  0  0  0  0  0
   39.7320  -48.3863    5.9907 C   0  0  0  0  0  0  0  0  0  0  0  0
   38.6510  -48.8410    6.7013 C   0  0  0  0  0  0  0  0  0  0  0  0
   38.7857  -47.9834    8.1740 S   0  0  0  0  0  0  0  0  0  0  0  0
   42.0357  -45.5164    8.3987 N   0  0  0  0  0  0  0  0  0  0  0  0
  1  2  1  0  0  0  0
  2  3  1  0  0  0  0
  3  4  2  0  0  0  0
  4  5  1  0  0  0  0
  5  6  2  0  0  0  0
  6  7  1  0  0  0  0
  7  8  2  0  0  0  0
  8  9  1  0  0  0  0
  8  3  1  0  0  0  0
  9 10  1  0  0  0  0
 10 11  1  0  0  0  0
 11 12  2  0  0  0  0
 11 13  1  0  0  0  0
 13 14  1  0  0  0  0
 14 15  1  0  0  0  0
 15 16  2  0  0  0  0
 16 17  1  0  0  0  0
 17 18  1  0  0  0  0
 18 19  1  0  0  0  0
 18 24  2  0  0  0  0
 19 20  2  0  0  0  0
 20 21  1  0  0  0  0
 21 22  2  0  0  0  0
 22 23  1  0  0  0  0
 23 19  1  0  0  0  0
 24 15  1  0  0  0  0
M  END
>  <CHROM.1>
-2.65404774,163.97684222,174.14869634,88.06305086,153.18258453,175.59032195
43.03701724,-46.12346319,6.14174135,0.72645168,-0.46419754,-2.02738264

>  <Name>
design_16

>  <RI>
0

>  <Rbt.Current_Directory>
/home/ziqiaoxu/icml18-jtnn/VAEdesign

>  <Rbt.Executable>
rbdock ($Id: //depot/dev/client3/rdock/2013.1/src/exe/rbdock.cxx#4 $)

>  <Rbt.Library>
libRbt.so (2013.1, Build901 2013/11/27)

>  <Rbt.Parameter_File>
/export/apps/rDock/src/rDock_2013.1_src//data/scripts/dock.prm

>  <Rbt.Receptor>
/home/ziqiaoxu/icml18-jtnn/VAEdesign/targets/RdRp-SARS-CoV-2/pocket_docking.prm

>  <SCORE>
-22.7384

>  <SCORE.INTER>
-22.8893

>  <SCORE.INTER.CONST>
1

>  <SCORE.INTER.POLAR>
-1.78326

>  <SCORE.INTER.REPUL>
0

>  <SCORE.INTER.ROT>
6

>  <SCORE.INTER.VDW>
-28.2263

>  <SCORE.INTER.norm>
-0.953723

>  <SCORE.INTRA>
0.150972

>  <SCORE.INTRA.DIHEDRAL>
0.225923

>  <SCORE.INTRA.DIHEDRAL.0>
4.51303

>  <SCORE.INTRA.POLAR>
0

>  <SCORE.INTRA.POLAR.0>
0

>  <SCORE.INTRA.REPUL>
0

>  <SCORE.INTRA.REPUL.0>
0

>  <SCORE.INTRA.VDW>
0.0380105

>  <SCORE.INTRA.VDW.0>
-1.83419

>  <SCORE.INTRA.norm>
0.0062905

>  <SCORE.RESTR>
0

>  <SCORE.RESTR.CAVITY>
0

>  <SCORE.RESTR.norm>
0

>  <SCORE.SYSTEM>
0

>  <SCORE.SYSTEM.CONST>
0

>  <SCORE.SYSTEM.DIHEDRAL>
0

>  <SCORE.SYSTEM.norm>
0

>  <SCORE.heavy>
24

>  <SCORE.norm>
-0.947432

$$$$
design_16
 OpenBabel05252019093D

 23 25  0  0  0  0  0  0  0  0999 V2000
   40.3979  -36.3619    2.4934 C   0  0  0  0  0  0  0  0  0  0  0  0
   40.1232  -37.1192    3.7309 C   0  0  0  0  0  0  0  0  0  0  0  0
   40.0217  -36.4791    4.9454 C   0  0  0  0  0  0  0  0  0  0  0  0
   39.7812  -37.2066    6.1095 C   0  0  0  0  0  0  0  0  0  0  0  0
   39.6372  -38.5751    6.0894 C   0  0  0  0  0  0  0  0  0  0  0  0
   39.4000  -39.3286    7.3283 C   0  0  0  0  0  0  0  0  0  0  0  0
   40.6158  -39.9252    7.9562 C   0  0  0  0  0  0  0  0  0  0  0  0
   40.2111  -40.6193    9.1589 N   0  0  0  0  0  0  0  0  0  0  0  0
   40.2186  -42.0322    9.2290 C   0  0  0  0  0  0  0  0  0  0  0  0
   40.5696  -42.6954    8.2378 O   0  0  0  0  0  0  0  0  0  0  0  0
   39.8153  -42.7611   10.4688 C   0  0  0  0  0  0  0  0  0  0  0  0
   41.0175  -44.1181   10.6788 S   0  0  0  0  0  0  0  0  0  0  0  0
   40.5576  -45.4394    9.5377 C   0  0  0  0  0  0  0  0  0  0  0  0
   41.1940  -45.7763    8.4092 N   0  0  0  0  0  0  0  0  0  0  0  0
   40.5347  -46.8181    7.8189 C   0  0  0  0  0  0  0  0  0  0  0  0
   40.7541  -47.5146    6.6914 N   0  0  0  0  0  0  0  0  0  0  0  0
   39.9078  -48.5219    6.3457 C   0  0  0  0  0  0  0  0  0  0  0  0
   38.8113  -48.8729    7.1107 C   0  0  0  0  0  0  0  0  0  0  0  0
   38.5883  -48.1578    8.2661 C   0  0  0  0  0  0  0  0  0  0  0  0
   39.4507  -47.1295    8.6207 C   0  0  0  0  0  0  0  0  0  0  0  0
   39.5048  -46.2680    9.6512 N   0  0  0  0  0  0  0  0  0  0  0  0
   39.7439  -39.1962    4.8451 C   0  0  0  0  0  0  0  0  0  0  0  0
   39.9827  -38.4856    3.6828 C   0  0  0  0  0  0  0  0  0  0  0  0
  1  2  1  0  0  0  0
  2  3  2  0  0  0  0
  3  4  1  0  0  0  0
  4  5  2  0  0  0  0
  5  6  1  0  0  0  0
  5 22  1  0  0  0  0
  6  7  1  0  0  0  0
  7  8  1  0  0  0  0
  8  9  1  0  0  0  0
  9 10  2  0  0  0  0
  9 11  1  0  0  0  0
 11 12  1  0  0  0  0
 12 13  1  0  0  0  0
 13 14  2  0  0  0  0
 14 15  1  0  0  0  0
 15 16  2  0  0  0  0
 16 17  1  0  0  0  0
 17 18  2  0  0  0  0
 18 19  1  0  0  0  0
 19 20  2  0  0  0  0
 20 21  1  0  0  0  0
 20 15  1  0  0  0  0
 21 13  1  0  0  0  0
 22 23  2  0  0  0  0
 23  2  1  0  0  0  0
M  END
>  <CHROM.1>
-96.35336893,179.67352966,108.79952937,-137.76975400,-78.40193224,106.89500476
40.09948575,-42.64550296,7.49673588,1.52408089,-1.44979914,-0.41670138

>  <Name>
design_16

>  <RI>
0

>  <Rbt.Current_Directory>
/home/ziqiaoxu/icml18-jtnn/VAEdesign

>  <Rbt.Executable>
rbdock ($Id: //depot/dev/client3/rdock/2013.1/src/exe/rbdock.cxx#4 $)

>  <Rbt.Library>
libRbt.so (2013.1, Build901 2013/11/27)

>  <Rbt.Parameter_File>
/export/apps/rDock/src/rDock_2013.1_src//data/scripts/dock.prm

>  <Rbt.Receptor>
/home/ziqiaoxu/icml18-jtnn/VAEdesign/targets/RdRp-SARS-CoV-2/pocket_docking.prm

>  <SCORE>
-23.3832

>  <SCORE.INTER>
-23.5414

>  <SCORE.INTER.CONST>
1

>  <SCORE.INTER.POLAR>
-1.97897

>  <SCORE.INTER.REPUL>
0

>  <SCORE.INTER.ROT>
6

>  <SCORE.INTER.VDW>
-28.2129

>  <SCORE.INTER.norm>
-1.02354

>  <SCORE.INTRA>
0.158178

>  <SCORE.INTRA.DIHEDRAL>
0.12303

>  <SCORE.INTRA.DIHEDRAL.0>
7.31385

>  <SCORE.INTRA.POLAR>
0

>  <SCORE.INTRA.POLAR.0>
0

>  <SCORE.INTRA.REPUL>
0

>  <SCORE.INTRA.REPUL.0>
0

>  <SCORE.INTRA.VDW>
0.0966632

>  <SCORE.INTRA.VDW.0>
-1.58629

>  <SCORE.INTRA.norm>
0.00687731

>  <SCORE.RESTR>
0

>  <SCORE.RESTR.CAVITY>
0

>  <SCORE.RESTR.norm>
0

>  <SCORE.SYSTEM>
0

>  <SCORE.SYSTEM.CONST>
0

>  <SCORE.SYSTEM.DIHEDRAL>
0

>  <SCORE.SYSTEM.norm>
0

>  <SCORE.heavy>
23

>  <SCORE.norm>
-1.01666

$$$$
design_16
 OpenBabel05252019093D

 24 26  0  0  0  0  0  0  0  0999 V2000
   44.1739  -45.9934    0.2529 C   0  0  0  0  0  0  0  0  0  0  0  0
   44.4483  -45.7656    1.6259 O   0  0  0  0  0  0  0  0  0  0  0  0
   45.6233  -46.2997    2.1277 C   0  0  0  0  0  0  0  0  0  0  0  0
   46.4780  -47.0167    1.3927 N   0  0  0  0  0  0  0  0  0  0  0  0
   47.6111  -47.5316    1.8761 C   0  0  0  0  0  0  0  0  0  0  0  0
   47.9098  -47.3144    3.1871 C   0  0  0  0  0  0  0  0  0  0  0  0
   47.0583  -46.5714    4.0167 C   0  0  0  0  0  0  0  0  0  0  0  0
   45.9031  -46.0596    3.4762 C   0  0  0  0  0  0  0  0  0  0  0  0
   44.9133  -45.2941    4.2527 C   0  0  0  0  0  0  0  0  0  0  0  0
   45.1390  -45.3675    5.6561 N   0  0  0  0  0  0  0  0  0  0  0  0
   44.3407  -44.6707    6.6004 C   0  0  0  0  0  0  0  0  0  0  0  0
   43.3936  -43.9685    6.2102 O   0  0  0  0  0  0  0  0  0  0  0  0
   44.6211  -44.7752    7.9728 N   0  0  0  0  0  0  0  0  0  0  0  0
   43.8652  -44.1015    8.9723 C   0  0  0  0  0  0  0  0  0  0  0  0
   42.5349  -44.7723    9.2603 C   0  0  0  0  0  0  0  0  0  0  0  0
   41.8574  -44.4452   10.4069 C   0  0  0  0  0  0  0  0  0  0  0  0
   40.4558  -45.4393   10.2593 S   0  0  0  0  0  0  0  0  0  0  0  0
   40.8366  -46.1783    8.7775 C   0  0  0  0  0  0  0  0  0  0  0  0
   40.0873  -47.1760    7.9887 C   0  0  0  0  0  0  0  0  0  0  0  0
   39.0298  -47.9449    8.3845 C   0  0  0  0  0  0  0  0  0  0  0  0
   38.5140  -48.7868    7.4805 C   0  0  0  0  0  0  0  0  0  0  0  0
   39.0852  -48.8093    6.2379 C   0  0  0  0  0  0  0  0  0  0  0  0
   40.3293  -47.6496    6.3709 S   0  0  0  0  0  0  0  0  0  0  0  0
   41.9991  -45.6412    8.4667 N   0  0  0  0  0  0  0  0  0  0  0  0
  1  2  1  0  0  0  0
  2  3  1  0  0  0  0
  3  4  2  0  0  0  0
  4  5  1  0  0  0  0
  5  6  2  0  0  0  0
  6  7  1  0  0  0  0
  7  8  2  0  0  0  0
  8  9  1  0  0  0  0
  8  3  1  0  0  0  0
  9 10  1  0  0  0  0
 10 11  1  0  0  0  0
 11 12  2  0  0  0  0
 11 13  1  0  0  0  0
 13 14  1  0  0  0  0
 14 15  1  0  0  0  0
 15 16  2  0  0  0  0
 16 17  1  0  0  0  0
 17 18  1  0  0  0  0
 18 19  1  0  0  0  0
 18 24  2  0  0  0  0
 19 20  2  0  0  0  0
 20 21  1  0  0  0  0
 21 22  2  0  0  0  0
 22 23  1  0  0  0  0
 23 19  1  0  0  0  0
 24 15  1  0  0  0  0
M  END
>  <CHROM.1>
-0.85311033,166.54645788,177.70346880,77.34477529,163.92329240,-14.29763113
43.07896067,-46.15776942,6.08094693,0.74721573,-0.46392845,-2.03089286

>  <Name>
design_16

>  <RI>
0

>  <Rbt.Current_Directory>
/home/ziqiaoxu/icml18-jtnn/VAEdesign

>  <Rbt.Executable>
rbdock ($Id: //depot/dev/client3/rdock/2013.1/src/exe/rbdock.cxx#4 $)

>  <Rbt.Library>
libRbt.so (2013.1, Build901 2013/11/27)

>  <Rbt.Parameter_File>
/export/apps/rDock/src/rDock_2013.1_src//data/scripts/dock.prm

>  <Rbt.Receptor>
/home/ziqiaoxu/icml18-jtnn/VAEdesign/targets/RdRp-SARS-CoV-2/pocket_docking.prm

>  <SCORE>
-21.3231

>  <SCORE.INTER>
-22.7286

>  <SCORE.INTER.CONST>
1

>  <SCORE.INTER.POLAR>
-1.75091

>  <SCORE.INTER.REPUL>
0.000162627

>  <SCORE.INTER.ROT>
6

>  <SCORE.INTER.VDW>
-28.1763

>  <SCORE.INTER.norm>
-0.947026

>  <SCORE.INTRA>
1.40556

>  <SCORE.INTRA.DIHEDRAL>
0.686749

>  <SCORE.INTRA.DIHEDRAL.0>
5.16197

>  <SCORE.INTRA.POLAR>
0

>  <SCORE.INTRA.POLAR.0>
0

>  <SCORE.INTRA.REPUL>
0

>  <SCORE.INTRA.REPUL.0>
0

>  <SCORE.INTRA.VDW>
1.06218

>  <SCORE.INTRA.VDW.0>
-1.58834

>  <SCORE.INTRA.norm>
0.058565

>  <SCORE.RESTR>
0

>  <SCORE.RESTR.CAVITY>
0

>  <SCORE.RESTR.norm>
0

>  <SCORE.SYSTEM>
0

>  <SCORE.SYSTEM.CONST>
0

>  <SCORE.SYSTEM.DIHEDRAL>
0

>  <SCORE.SYSTEM.norm>
0

>  <SCORE.heavy>
24

>  <SCORE.norm>
-0.888461

$$$$
design_16
 OpenBabel05252019093D

 25 27  0  0  0  0  0  0  0  0999 V2000
   44.4118  -46.3542   -0.3688 C   0  0  0  0  0  0  0  0  0  0  0  0
   44.9914  -46.2758    0.8809 O   0  0  0  0  0  0  0  0  0  0  0  0
   46.2098  -46.7030    1.3232 C   0  0  0  0  0  0  0  0  0  0  0  0
   47.1433  -47.2680    0.4716 C   0  0  0  0  0  0  0  0  0  0  0  0
   48.3745  -47.7008    0.9081 C   0  0  0  0  0  0  0  0  0  0  0  0
   48.6549  -47.5537    2.2409 C   0  0  0  0  0  0  0  0  0  0  0  0
   47.7272  -46.9903    3.1069 C   0  0  0  0  0  0  0  0  0  0  0  0
   46.4951  -46.5497    2.6954 C   0  0  0  0  0  0  0  0  0  0  0  0
   45.5253  -45.9289    3.5141 N   0  0  0  0  0  0  0  0  0  0  0  0
   45.7972  -45.3717    4.7585 C   0  0  0  0  0  0  0  0  0  0  0  0
   46.9222  -45.3671    5.2863 O   0  0  0  0  0  0  0  0  0  0  0  0
   44.7065  -44.7242    5.5585 C   0  0  0  0  0  0  0  0  0  0  0  0
   44.6970  -45.2045    6.9714 C   0  0  0  0  0  0  0  0  0  0  0  0
   43.4291  -45.7340    7.3436 N   0  0  0  0  0  0  0  0  0  0  0  0
   42.6912  -45.1867    8.4192 C   0  0  0  0  0  0  0  0  0  0  0  0
   43.1548  -44.2316    9.0631 O   0  0  0  0  0  0  0  0  0  0  0  0
   41.3767  -45.6930    8.8370 C   0  0  0  0  0  0  0  0  0  0  0  0
   40.6696  -45.4385    9.9767 C   0  0  0  0  0  0  0  0  0  0  0  0
   39.5268  -46.1597    9.9639 N   0  0  0  0  0  0  0  0  0  0  0  0
   39.4590  -46.8874    8.8381 C   0  0  0  0  0  0  0  0  0  0  0  0
   38.5018  -47.7638    8.3229 C   0  0  0  0  0  0  0  0  0  0  0  0
   38.6665  -48.3725    7.0945 C   0  0  0  0  0  0  0  0  0  0  0  0
   39.8219  -48.1083    6.3446 C   0  0  0  0  0  0  0  0  0  0  0  0
   40.7491  -47.2405    6.8811 C   0  0  0  0  0  0  0  0  0  0  0  0
   40.6041  -46.6117    8.1192 C   0  0  0  0  0  0  0  0  0  0  0  0
  1  2  1  0  0  0  0
  2  3  1  0  0  0  0
  3  4  2  0  0  0  0
  4  5  1  0  0  0  0
  5  6  2  0  0  0  0
  6  7  1  0  0  0  0
  7  8  2  0  0  0  0
  8  9  1  0  0  0  0
  8  3  1  0  0  0  0
  9 10  1  0  0  0  0
 10 11  2  0  0  0  0
 10 12  1  0  0  0  0
 12 13  1  0  0  0  0
 13 14  1  0  0  0  0
 14 15  1  0  0  0  0
 15 16  2  0  0  0  0
 15 17  1  0  0  0  0
 17 18  2  0  0  0  0
 18 19  1  0  0  0  0
 19 20  1  0  0  0  0
 20 21  2  0  0  0  0
 21 22  1  0  0  0  0
 22 23  2  0  0  0  0
 23 24  1  0  0  0  0
 24 25  2  0  0  0  0
 25 17  1  0  0  0  0
 25 20  1  0  0  0  0
M  END
>  <CHROM.1>
3.67697818,-160.82658770,131.38370818,-124.52982458,-120.71704948,166.79385959
43.64855343,-46.33888258,5.43334581,0.75033314,-0.34814078,-1.95534613

>  <Name>
design_16

>  <RI>
0

>  <Rbt.Current_Directory>
/home/ziqiaoxu/icml18-jtnn/VAEdesign

>  <Rbt.Executable>
rbdock ($Id: //depot/dev/client3/rdock/2013.1/src/exe/rbdock.cxx#4 $)

>  <Rbt.Library>
libRbt.so (2013.1, Build901 2013/11/27)

>  <Rbt.Parameter_File>
/export/apps/rDock/src/rDock_2013.1_src//data/scripts/dock.prm

>  <Rbt.Receptor>
/home/ziqiaoxu/icml18-jtnn/VAEdesign/targets/RdRp-SARS-CoV-2/pocket_docking.prm

>  <SCORE>
-22.009

>  <SCORE.INTER>
-20.2325

>  <SCORE.INTER.CONST>
1

>  <SCORE.INTER.POLAR>
-1.0198

>  <SCORE.INTER.REPUL>
0

>  <SCORE.INTER.ROT>
6

>  <SCORE.INTER.VDW>
-28.1651

>  <SCORE.INTER.norm>
-0.809299

>  <SCORE.INTRA>
-1.7765

>  <SCORE.INTRA.DIHEDRAL>
-1.15386

>  <SCORE.INTRA.DIHEDRAL.0>
12.1472

>  <SCORE.INTRA.POLAR>
0

>  <SCORE.INTRA.POLAR.0>
0

>  <SCORE.INTRA.REPUL>
0

>  <SCORE.INTRA.REPUL.0>
0

>  <SCORE.INTRA.VDW>
-1.19957

>  <SCORE.INTRA.VDW.0>
1.1635

>  <SCORE.INTRA.norm>
-0.07106

>  <SCORE.RESTR>
0

>  <SCORE.RESTR.CAVITY>
0

>  <SCORE.RESTR.norm>
0

>  <SCORE.SYSTEM>
0

>  <SCORE.SYSTEM.CONST>
0

>  <SCORE.SYSTEM.DIHEDRAL>
0

>  <SCORE.SYSTEM.norm>
0

>  <SCORE.heavy>
25

>  <SCORE.norm>
-0.880359

$$$$
design_7
 OpenBabel05252019093D

 26 28  0  0  0  0  0  0  0  0999 V2000
   40.8833  -42.2395    7.8133 O   0  0  0  0  0  0  0  0  0  0  0  0
   40.4093  -41.8430    8.9218 C   0  0  0  0  0  0  0  0  0  0  0  0
   40.2655  -42.7255   10.0151 N   0  0  0  0  0  0  0  0  0  0  0  0
   40.6399  -44.1043    9.9061 C   0  0  0  0  0  0  0  0  0  0  0  0
   39.4404  -44.9703    9.6756 C   0  0  0  0  0  0  0  0  0  0  0  0
   39.9628  -46.3923    9.4566 C   0  0  0  0  0  0  0  0  0  0  0  0
   40.2142  -46.6566    8.0741 N   0  0  0  0  0  0  0  0  0  0  0  0
   39.2175  -47.3652    7.3090 C   0  0  0  0  0  0  0  0  0  0  0  0
   39.7969  -48.2828    6.2756 C   0  0  0  0  0  0  0  0  0  0  0  0
   40.3775  -47.5987    5.0920 C   0  0  0  0  0  0  0  0  0  0  0  0
   40.6180  -46.1382    5.2547 C   0  0  0  0  0  0  0  0  0  0  0  0
   41.8205  -45.8992    6.1355 C   0  0  0  0  0  0  0  0  0  0  0  0
   41.4630  -46.1860    7.5491 C   0  0  0  0  0  0  0  0  0  0  0  0
   42.3662  -45.9915    8.3822 O   0  0  0  0  0  0  0  0  0  0  0  0
   40.0102  -40.4853    9.0825 N   0  0  0  0  0  0  0  0  0  0  0  0
   40.1376  -39.5599    8.0057 C   0  0  0  0  0  0  0  0  0  0  0  0
   39.0117  -39.6127    7.0254 C   0  0  0  0  0  0  0  0  0  0  0  0
   39.4082  -38.7621    5.8434 C   0  0  0  0  0  0  0  0  0  0  0  0
   39.6209  -39.1344    4.5959 N   0  0  0  0  0  0  0  0  0  0  0  0
   39.9612  -38.2473    3.6979 C   0  0  0  0  0  0  0  0  0  0  0  0
   40.2168  -38.5094    2.3354 C   0  0  0  0  0  0  0  0  0  0  0  0
   40.5620  -37.4859    1.5163 C   0  0  0  0  0  0  0  0  0  0  0  0
   40.6915  -36.1783    1.8933 C   0  0  0  0  0  0  0  0  0  0  0  0
   40.4417  -35.9103    3.2330 C   0  0  0  0  0  0  0  0  0  0  0  0
   40.0815  -36.9471    4.1112 C   0  0  0  0  0  0  0  0  0  0  0  0
   39.6963  -37.0798    5.7733 S   0  0  0  0  0  0  0  0  0  0  0  0
  1  2  2  0  0  0  0
  2  3  1  0  0  0  0
  2 15  1  0  0  0  0
  3  4  1  0  0  0  0
  4  5  1  0  0  0  0
  5  6  1  0  0  0  0
  6  7  1  0  0  0  0
  7  8  1  0  0  0  0
  8  9  1  0  0  0  0
  9 10  1  0  0  0  0
 10 11  1  0  0  0  0
 11 12  1  0  0  0  0
 12 13  1  0  0  0  0
 13 14  2  0  0  0  0
 13  7  1  0  0  0  0
 15 16  1  0  0  0  0
 16 17  1  0  0  0  0
 17 18  1  0  0  0  0
 18 19  2  0  0  0  0
 19 20  1  0  0  0  0
 20 21  2  0  0  0  0
 21 22  1  0  0  0  0
 22 23  2  0  0  0  0
 23 24  1  0  0  0  0
 24 25  2  0  0  0  0
 25 26  1  0  0  0  0
 25 20  1  0  0  0  0
 26 18  1  0  0  0  0
M  END
>  <CHROM.1>
-99.98688272,175.29071605,-90.58642170,-98.33733818,82.50343568,-170.39058953
115.75089266,40.26285523,-41.96447108,6.48555586,1.13036035,-1.46981085,2.30308774

>  <Name>
design_7

>  <RI>
0

>  <Rbt.Current_Directory>
/home/ziqiaoxu/icml18-jtnn/VAEdesign

>  <Rbt.Executable>
rbdock ($Id: //depot/dev/client3/rdock/2013.1/src/exe/rbdock.cxx#4 $)

>  <Rbt.Library>
libRbt.so (2013.1, Build901 2013/11/27)

>  <Rbt.Parameter_File>
/export/apps/rDock/src/rDock_2013.1_src//data/scripts/dock.prm

>  <Rbt.Receptor>
/home/ziqiaoxu/icml18-jtnn/VAEdesign/targets/RdRp-SARS-CoV-2/pocket_docking.prm

>  <SCORE>
-19.2243

>  <SCORE.INTER>
-19.0208

>  <SCORE.INTER.CONST>
1

>  <SCORE.INTER.POLAR>
-0.959166

>  <SCORE.INTER.REPUL>
0

>  <SCORE.INTER.ROT>
7

>  <SCORE.INTER.VDW>
-28.1596

>  <SCORE.INTER.norm>
-0.731569

>  <SCORE.INTRA>
-0.203536

>  <SCORE.INTRA.DIHEDRAL>
3.2692

>  <SCORE.INTRA.DIHEDRAL.0>
6.14854

>  <SCORE.INTRA.POLAR>
0

>  <SCORE.INTRA.POLAR.0>
0

>  <SCORE.INTRA.REPUL>
0

>  <SCORE.INTRA.REPUL.0>
0

>  <SCORE.INTRA.VDW>
-1.83814

>  <SCORE.INTRA.VDW.0>
-0.167572

>  <SCORE.INTRA.norm>
-0.0078283

>  <SCORE.RESTR>
0

>  <SCORE.RESTR.CAVITY>
0

>  <SCORE.RESTR.norm>
0

>  <SCORE.SYSTEM>
0

>  <SCORE.SYSTEM.CONST>
0

>  <SCORE.SYSTEM.DIHEDRAL>
0

>  <SCORE.SYSTEM.norm>
0

>  <SCORE.heavy>
26

>  <SCORE.norm>
-0.739398

$$$$
design_10
 OpenBabel05252019093D

 26 28  0  0  0  0  0  0  0  0999 V2000
   40.0460  -40.8663    8.2268 C   0  0  0  0  0  0  0  0  0  0  0  0
   39.6958  -39.7391    7.3699 C   0  0  0  0  0  0  0  0  0  0  0  0
   40.4024  -38.5630    7.4269 C   0  0  0  0  0  0  0  0  0  0  0  0
   40.0723  -37.4943    6.5568 C   0  0  0  0  0  0  0  0  0  0  0  0
   39.0616  -37.6017    5.6579 C   0  0  0  0  0  0  0  0  0  0  0  0
   38.3677  -38.8228    5.6431 C   0  0  0  0  0  0  0  0  0  0  0  0
   38.6234  -39.8957    6.4465 C   0  0  0  0  0  0  0  0  0  0  0  0
   37.8002  -41.1042    6.4219 C   0  0  0  0  0  0  0  0  0  0  0  0
   36.5046  -41.2939    6.3505 N   0  0  0  0  0  0  0  0  0  0  0  0
   36.2073  -42.5566    6.2066 O   0  0  0  0  0  0  0  0  0  0  0  0
   37.2818  -43.2602    6.1787 C   0  0  0  0  0  0  0  0  0  0  0  0
   37.5067  -44.6816    6.0162 C   0  0  0  0  0  0  0  0  0  0  0  0
   36.3146  -45.5622    5.8520 C   0  0  0  0  0  0  0  0  0  0  0  0
   36.9908  -46.8651    5.3569 C   0  0  0  0  0  0  0  0  0  0  0  0
   36.6148  -47.2234    4.2117 O   0  0  0  0  0  0  0  0  0  0  0  0
   37.8381  -47.4601    6.2103 N   0  0  0  0  0  0  0  0  0  0  0  0
   38.7187  -48.1010    7.0710 C   0  0  0  0  0  0  0  0  0  0  0  0
   39.5745  -47.1588    7.8936 C   0  0  0  0  0  0  0  0  0  0  0  0
   39.1813  -46.7442    9.1275 C   0  0  0  0  0  0  0  0  0  0  0  0
   40.0280  -45.9176    9.8854 C   0  0  0  0  0  0  0  0  0  0  0  0
   41.2432  -45.5184    9.4044 C   0  0  0  0  0  0  0  0  0  0  0  0
   41.6441  -45.9448    8.1344 C   0  0  0  0  0  0  0  0  0  0  0  0
   42.9409  -45.5278    7.6713 C   0  0  0  0  0  0  0  0  0  0  0  0
   43.9643  -45.1976    7.2667 N   0  0  0  0  0  0  0  0  0  0  0  0
   40.8274  -46.7473    7.3985 C   0  0  0  0  0  0  0  0  0  0  0  0
   38.3279  -42.3382    6.3244 N   0  0  0  0  0  0  0  0  0  0  0  0
  1  2  1  0  0  0  0
  2  3  2  0  0  0  0
  3  4  1  0  0  0  0
  4  5  2  0  0  0  0
  5  6  1  0  0  0  0
  6  7  2  0  0  0  0
  7  8  1  0  0  0  0
  7  2  1  0  0  0  0
  8  9  2  0  0  0  0
  9 10  1  0  0  0  0
 10 11  1  0  0  0  0
 11 12  1  0  0  0  0
 11 26  2  0  0  0  0
 12 13  1  0  0  0  0
 13 14  1  0  0  0  0
 14 15  2  0  0  0  0
 14 16  1  0  0  0  0
 16 17  1  0  0  0  0
 17 18  1  0  0  0  0
 18 19  2  0  0  0  0
 19 20  1  0  0  0  0
 20 21  2  0  0  0  0
 21 22  1  0  0  0  0
 22 23  1  0  0  0  0
 22 25  2  0  0  0  0
 23 24  3  0  0  0  0
 25 18  1  0  0  0  0
 26  8  1  0  0  0  0
M  END
>  <CHROM.1>
134.58200791,-0.39167111,166.11429959,-118.82613089,146.16771975,91.97774184
39.00656281,-43.59291237,6.89824006,-1.61518179,0.47439674,3.08063531

>  <Name>
design_10

>  <RI>
0

>  <Rbt.Current_Directory>
/home/ziqiaoxu/icml18-jtnn/VAEdesign

>  <Rbt.Executable>
rbdock ($Id: //depot/dev/client3/rdock/2013.1/src/exe/rbdock.cxx#4 $)

>  <Rbt.Library>
libRbt.so (2013.1, Build901 2013/11/27)

>  <Rbt.Parameter_File>
/export/apps/rDock/src/rDock_2013.1_src//data/scripts/dock.prm

>  <Rbt.Receptor>
/home/ziqiaoxu/icml18-jtnn/VAEdesign/targets/RdRp-SARS-CoV-2/pocket_docking.prm

>  <SCORE>
-16.7457

>  <SCORE.INTER>
-18.4219

>  <SCORE.INTER.CONST>
1

>  <SCORE.INTER.POLAR>
-0.491162

>  <SCORE.INTER.REPUL>
0

>  <SCORE.INTER.ROT>
6

>  <SCORE.INTER.VDW>
-28.1519

>  <SCORE.INTER.norm>
-0.708534

>  <SCORE.INTRA>
1.65074

>  <SCORE.INTRA.DIHEDRAL>
5.42943

>  <SCORE.INTRA.DIHEDRAL.0>
6.54702

>  <SCORE.INTRA.POLAR>
0

>  <SCORE.INTRA.POLAR.0>
0

>  <SCORE.INTRA.REPUL>
0

>  <SCORE.INTRA.REPUL.0>
0

>  <SCORE.INTRA.VDW>
-1.06398

>  <SCORE.INTRA.VDW.0>
-0.815548

>  <SCORE.INTRA.norm>
0.06349

>  <SCORE.RESTR>
0.0254845

>  <SCORE.RESTR.CAVITY>
0.0254845

>  <SCORE.RESTR.norm>
0.000980175

>  <SCORE.SYSTEM>
0

>  <SCORE.SYSTEM.CONST>
0

>  <SCORE.SYSTEM.DIHEDRAL>
0

>  <SCORE.SYSTEM.norm>
0

>  <SCORE.heavy>
26

>  <SCORE.norm>
-0.644064

$$$$
design_15
 OpenBabel05252019093D

 24 25  0  0  0  0  0  0  0  0999 V2000
   42.2008  -36.2906    3.1138 C   0  0  0  0  0  0  0  0  0  0  0  0
   41.0584  -35.5527    3.7510 C   0  0  0  0  0  0  0  0  0  0  0  0
   39.9659  -36.5803    4.0060 C   0  0  0  0  0  0  0  0  0  0  0  0
   39.0759  -36.5676    3.1194 O   0  0  0  0  0  0  0  0  0  0  0  0
   40.0164  -37.4060    5.1057 N   0  0  0  0  0  0  0  0  0  0  0  0
   40.0648  -38.2005    6.1638 C   0  0  0  0  0  0  0  0  0  0  0  0
   40.5155  -37.9197    7.4454 C   0  0  0  0  0  0  0  0  0  0  0  0
   40.5508  -38.8441    8.4807 C   0  0  0  0  0  0  0  0  0  0  0  0
   40.1230  -40.1212    8.2701 C   0  0  0  0  0  0  0  0  0  0  0  0
   40.0912  -41.0963    9.3064 N   0  0  0  0  0  0  0  0  0  0  0  0
   39.7156  -42.4210    9.1504 C   0  0  0  0  0  0  0  0  0  0  0  0
   39.3265  -42.8771    8.0660 O   0  0  0  0  0  0  0  0  0  0  0  0
   39.7628  -43.3815   10.3094 C   0  0  0  0  0  0  0  0  0  0  0  0
   40.1989  -44.6174    9.9623 O   0  0  0  0  0  0  0  0  0  0  0  0
   39.8292  -45.6624    9.2300 C   0  0  0  0  0  0  0  0  0  0  0  0
   38.6442  -46.3539    9.2181 C   0  0  0  0  0  0  0  0  0  0  0  0
   38.3780  -47.4449    8.4053 C   0  0  0  0  0  0  0  0  0  0  0  0
   39.3499  -47.8876    7.5404 C   0  0  0  0  0  0  0  0  0  0  0  0
   39.1024  -49.2567    6.5011 Cl  0  0  0  0  0  0  0  0  0  0  0  0
   40.5608  -47.2230    7.5121 C   0  0  0  0  0  0  0  0  0  0  0  0
   40.8137  -46.1486    8.3170 C   0  0  0  0  0  0  0  0  0  0  0  0
   42.3445  -45.3106    8.2559 Cl  0  0  0  0  0  0  0  0  0  0  0  0
   39.6632  -40.4604    7.0151 C   0  0  0  0  0  0  0  0  0  0  0  0
   39.6288  -39.5585    6.0059 C   0  0  0  0  0  0  0  0  0  0  0  0
  1  2  1  0  0  0  0
  2  3  1  0  0  0  0
  3  4  2  0  0  0  0
  3  5  1  0  0  0  0
  5  6  1  0  0  0  0
  6  7  2  0  0  0  0
  7  8  1  0  0  0  0
  8  9  2  0  0  0  0
  9 10  1  0  0  0  0
  9 23  1  0  0  0  0
 10 11  1  0  0  0  0
 11 12  2  0  0  0  0
 11 13  1  0  0  0  0
 13 14  1  0  0  0  0
 14 15  1  0  0  0  0
 15 16  2  0  0  0  0
 16 17  1  0  0  0  0
 17 18  2  0  0  0  0
 18 19  1  0  0  0  0
 18 20  1  0  0  0  0
 20 21  2  0  0  0  0
 21 22  1  0  0  0  0
 21 15  1  0  0  0  0
 23 24  2  0  0  0  0
 24  6  1  0  0  0  0
M  END
>  <CHROM.1>
-98.76722277,-139.80452311,-177.49945172,-140.74293481,-66.48745965,-50.92779275
40.12502774,-42.51844028,7.24123279,1.05111725,-1.46013338,-0.81661410

>  <Name>
design_15

>  <RI>
0

>  <Rbt.Current_Directory>
/home/ziqiaoxu/icml18-jtnn/VAEdesign

>  <Rbt.Executable>
rbdock ($Id: //depot/dev/client3/rdock/2013.1/src/exe/rbdock.cxx#4 $)

>  <Rbt.Library>
libRbt.so (2013.1, Build901 2013/11/27)

>  <Rbt.Parameter_File>
/export/apps/rDock/src/rDock_2013.1_src//data/scripts/dock.prm

>  <Rbt.Receptor>
/home/ziqiaoxu/icml18-jtnn/VAEdesign/targets/RdRp-SARS-CoV-2/pocket_docking.prm

>  <SCORE>
-21.5426

>  <SCORE.INTER>
-18.763

>  <SCORE.INTER.CONST>
1

>  <SCORE.INTER.POLAR>
-0.601594

>  <SCORE.INTER.REPUL>
0.00416596

>  <SCORE.INTER.ROT>
6

>  <SCORE.INTER.VDW>
-28.1384

>  <SCORE.INTER.norm>
-0.781793

>  <SCORE.INTRA>
-2.77957

>  <SCORE.INTRA.DIHEDRAL>
3.5049

>  <SCORE.INTRA.DIHEDRAL.0>
6.66203

>  <SCORE.INTRA.POLAR>
0

>  <SCORE.INTRA.POLAR.0>
0

>  <SCORE.INTRA.REPUL>
0

>  <SCORE.INTRA.REPUL.0>
0

>  <SCORE.INTRA.VDW>
-4.53201

>  <SCORE.INTRA.VDW.0>
5.68703

>  <SCORE.INTRA.norm>
-0.115815

>  <SCORE.RESTR>
0

>  <SCORE.RESTR.CAVITY>
0

>  <SCORE.RESTR.norm>
0

>  <SCORE.SYSTEM>
0

>  <SCORE.SYSTEM.CONST>
0

>  <SCORE.SYSTEM.DIHEDRAL>
0

>  <SCORE.SYSTEM.norm>
0

>  <SCORE.heavy>
24

>  <SCORE.norm>
-0.897608

$$$$
design_6
 OpenBabel05252019093D

 26 28  0  0  0  0  0  0  0  0999 V2000
   40.1299  -46.2309   10.4166 N   0  0  0  0  0  0  0  0  0  0  0  0
   40.6822  -45.8115    9.1858 C   0  0  0  0  0  0  0  0  0  0  0  0
   41.3719  -44.7814    9.1448 O   0  0  0  0  0  0  0  0  0  0  0  0
   40.4090  -46.6280    7.9955 C   0  0  0  0  0  0  0  0  0  0  0  0
   39.5141  -47.6654    8.0699 C   0  0  0  0  0  0  0  0  0  0  0  0
   39.2677  -48.4199    6.9522 C   0  0  0  0  0  0  0  0  0  0  0  0
   39.9057  -48.1572    5.7416 C   0  0  0  0  0  0  0  0  0  0  0  0
   40.8059  -47.1299    5.6284 C   0  0  0  0  0  0  0  0  0  0  0  0
   41.5043  -46.7923    4.4542 N   0  0  0  0  0  0  0  0  0  0  0  0
   42.4862  -45.8400    4.2887 C   0  0  0  0  0  0  0  0  0  0  0  0
   42.9135  -45.0937    5.2336 O   0  0  0  0  0  0  0  0  0  0  0  0
   43.1082  -45.6429    2.9381 C   0  0  0  0  0  0  0  0  0  0  0  0
   42.1966  -45.1532    1.9807 O   0  0  0  0  0  0  0  0  0  0  0  0
   42.4307  -43.8628    1.5236 C   0  0  0  0  0  0  0  0  0  0  0  0
   41.6142  -42.7908    1.9238 C   0  0  0  0  0  0  0  0  0  0  0  0
   41.8657  -41.5226    1.4559 C   0  0  0  0  0  0  0  0  0  0  0  0
   42.9153  -41.2956    0.5955 C   0  0  0  0  0  0  0  0  0  0  0  0
   43.6953  -42.3715    0.2245 C   0  0  0  0  0  0  0  0  0  0  0  0
   43.4802  -43.6569    0.6684 C   0  0  0  0  0  0  0  0  0  0  0  0
   44.3275  -44.7541    0.2645 C   0  0  0  0  0  0  0  0  0  0  0  0
   43.6937  -45.8343   -0.3592 C   0  0  0  0  0  0  0  0  0  0  0  0
   44.3702  -46.9318   -0.8007 C   0  0  0  0  0  0  0  0  0  0  0  0
   45.7329  -46.9790   -0.6257 C   0  0  0  0  0  0  0  0  0  0  0  0
   46.3680  -45.9131   -0.0090 C   0  0  0  0  0  0  0  0  0  0  0  0
   45.6855  -44.8028    0.4381 C   0  0  0  0  0  0  0  0  0  0  0  0
   41.0244  -46.3869    6.7985 C   0  0  0  0  0  0  0  0  0  0  0  0
  1  2  1  0  0  0  0
  2  3  2  0  0  0  0
  2  4  1  0  0  0  0
  4  5  2  0  0  0  0
  5  6  1  0  0  0  0
  6  7  2  0  0  0  0
  7  8  1  0  0  0  0
  8  9  1  0  0  0  0
  8 26  2  0  0  0  0
  9 10  1  0  0  0  0
 10 11  2  0  0  0  0
 10 12  1  0  0  0  0
 12 13  1  0  0  0  0
 13 14  1  0  0  0  0
 14 15  2  0  0  0  0
 15 16  1  0  0  0  0
 16 17  2  0  0  0  0
 17 18  1  0  0  0  0
 18 19  2  0  0  0  0
 19 20  1  0  0  0  0
 19 14  1  0  0  0  0
 20 21  2  0  0  0  0
 21 22  1  0  0  0  0
 22 23  2  0  0  0  0
 23 24  1  0  0  0  0
 24 25  2  0  0  0  0
 25 20  1  0  0  0  0
 26  4  1  0  0  0  0
M  END
>  <CHROM.1>
7.64450924,-175.05206669,65.53811505,112.58866317,-106.68825786,57.64119395
42.34149467,-45.41061969,3.71734350,2.66259296,-1.08141689,2.87263488

>  <Name>
design_6

>  <RI>
0

>  <Rbt.Current_Directory>
/home/ziqiaoxu/icml18-jtnn/VAEdesign

>  <Rbt.Executable>
rbdock ($Id: //depot/dev/client3/rdock/2013.1/src/exe/rbdock.cxx#4 $)

>  <Rbt.Library>
libRbt.so (2013.1, Build901 2013/11/27)

>  <Rbt.Parameter_File>
/export/apps/rDock/src/rDock_2013.1_src//data/scripts/dock.prm

>  <Rbt.Receptor>
/home/ziqiaoxu/icml18-jtnn/VAEdesign/targets/RdRp-SARS-CoV-2/pocket_docking.prm

>  <SCORE>
-24.2429

>  <SCORE.INTER>
-28.098

>  <SCORE.INTER.CONST>
1

>  <SCORE.INTER.POLAR>
-3.42232

>  <SCORE.INTER.REPUL>
0.0518273

>  <SCORE.INTER.ROT>
6

>  <SCORE.INTER.VDW>
-28.1212

>  <SCORE.INTER.norm>
-1.08069

>  <SCORE.INTRA>
3.85506

>  <SCORE.INTRA.DIHEDRAL>
12.2522

>  <SCORE.INTRA.DIHEDRAL.0>
4.12108

>  <SCORE.INTRA.POLAR>
0.0476542

>  <SCORE.INTRA.POLAR.0>
-0.0476542

>  <SCORE.INTRA.REPUL>
0

>  <SCORE.INTRA.REPUL.0>
0

>  <SCORE.INTRA.VDW>
-2.43308

>  <SCORE.INTRA.VDW.0>
0.955332

>  <SCORE.INTRA.norm>
0.148272

>  <SCORE.RESTR>
0

>  <SCORE.RESTR.CAVITY>
0

>  <SCORE.RESTR.norm>
0

>  <SCORE.SYSTEM>
0

>  <SCORE.SYSTEM.CONST>
0

>  <SCORE.SYSTEM.DIHEDRAL>
0

>  <SCORE.SYSTEM.norm>
0

>  <SCORE.heavy>
26

>  <SCORE.norm>
-0.932419

$$$$
design_5
 OpenBabel05252019093D

 24 26  0  0  0  0  0  0  0  0999 V2000
   39.2881  -48.5987    6.6747 C   0  0  0  0  0  0  0  0  0  0  0  0
   39.7849  -47.5700    7.6127 C   0  0  0  0  0  0  0  0  0  0  0  0
   40.9818  -46.9142    7.3727 C   0  0  0  0  0  0  0  0  0  0  0  0
   41.4249  -45.9431    8.2799 C   0  0  0  0  0  0  0  0  0  0  0  0
   40.7241  -45.6004    9.4107 C   0  0  0  0  0  0  0  0  0  0  0  0
   41.2095  -44.3932   10.6072 S   0  0  0  0  0  0  0  0  0  0  0  0
   40.0548  -43.0216   10.5922 C   0  0  0  0  0  0  0  0  0  0  0  0
   40.2147  -42.2283    9.3528 C   0  0  0  0  0  0  0  0  0  0  0  0
   40.6954  -42.7427    8.2977 O   0  0  0  0  0  0  0  0  0  0  0  0
   39.8063  -40.8664    9.3877 N   0  0  0  0  0  0  0  0  0  0  0  0
   39.9573  -40.1478    8.1597 C   0  0  0  0  0  0  0  0  0  0  0  0
   39.8632  -40.7519    6.9191 C   0  0  0  0  0  0  0  0  0  0  0  0
   40.0247  -40.0287    5.7758 C   0  0  0  0  0  0  0  0  0  0  0  0
   40.2915  -38.6610    5.8281 C   0  0  0  0  0  0  0  0  0  0  0  0
   40.4535  -37.8972    4.6399 N   0  0  0  0  0  0  0  0  0  0  0  0
   40.3084  -36.4809    4.5108 C   0  0  0  0  0  0  0  0  0  0  0  0
   39.9335  -36.2583    3.0395 C   0  0  0  0  0  0  0  0  0  0  0  0
   40.7350  -37.3234    2.3492 C   0  0  0  0  0  0  0  0  0  0  0  0
   40.7929  -38.4118    3.3604 C   0  0  0  0  0  0  0  0  0  0  0  0
   41.1049  -39.6107    3.0783 O   0  0  0  0  0  0  0  0  0  0  0  0
   40.3804  -38.0925    7.0860 C   0  0  0  0  0  0  0  0  0  0  0  0
   40.2213  -38.7910    8.2561 C   0  0  0  0  0  0  0  0  0  0  0  0
   39.5238  -46.2935    9.5998 C   0  0  0  0  0  0  0  0  0  0  0  0
   39.0719  -47.2474    8.7265 C   0  0  0  0  0  0  0  0  0  0  0  0
  1  2  1  0  0  0  0
  2  3  2  0  0  0  0
  3  4  1  0  0  0  0
  4  5  2  0  0  0  0
  5  6  1  0  0  0  0
  5 23  1  0  0  0  0
  6  7  1  0  0  0  0
  7  8  1  0  0  0  0
  8  9  2  0  0  0  0
  8 10  1  0  0  0  0
 10 11  1  0  0  0  0
 11 12  2  0  0  0  0
 12 13  1  0  0  0  0
 13 14  2  0  0  0  0
 14 15  1  0  0  0  0
 14 21  1  0  0  0  0
 15 16  1  0  0  0  0
 16 17  1  0  0  0  0
 17 18  1  0  0  0  0
 18 19  1  0  0  0  0
 19 20  2  0  0  0  0
 19 15  1  0  0  0  0
 21 22  2  0  0  0  0
 22 11  1  0  0  0  0
 23 24  2  0  0  0  0
 24  2  1  0  0  0  0
M  END
>  <CHROM.1>
114.26970295,-70.85263469,24.63276920,30.36203384,158.78174482,40.33791563
-41.93487790,7.19422231,2.17781436,1.53979844,2.03571716

>  <Name>
design_5

>  <RI>
0

>  <Rbt.Current_Directory>
/home/ziqiaoxu/icml18-jtnn/VAEdesign

>  <Rbt.Executable>
rbdock ($Id: //depot/dev/client3/rdock/2013.1/src/exe/rbdock.cxx#4 $)

>  <Rbt.Library>
libRbt.so (2013.1, Build901 2013/11/27)

>  <Rbt.Parameter_File>
/export/apps/rDock/src/rDock_2013.1_src//data/scripts/dock.prm

>  <Rbt.Receptor>
/home/ziqiaoxu/icml18-jtnn/VAEdesign/targets/RdRp-SARS-CoV-2/pocket_docking.prm

>  <SCORE>
-24.8154

>  <SCORE.INTER>
-20.9713

>  <SCORE.INTER.CONST>
1

>  <SCORE.INTER.POLAR>
-0.958167

>  <SCORE.INTER.REPUL>
0

>  <SCORE.INTER.ROT>
5

>  <SCORE.INTER.VDW>
-28.1135

>  <SCORE.INTER.norm>
-0.873803

>  <SCORE.INTRA>
-3.84408

>  <SCORE.INTRA.DIHEDRAL>
-15.0239

>  <SCORE.INTRA.DIHEDRAL.0>
23.549

>  <SCORE.INTRA.POLAR>
0

>  <SCORE.INTRA.POLAR.0>
0

>  <SCORE.INTRA.REPUL>
0

>  <SCORE.INTRA.REPUL.0>
0

>  <SCORE.INTRA.VDW>
3.66787

>  <SCORE.INTRA.VDW.0>
-3.36471

>  <SCORE.INTRA.norm>
-0.16017

>  <SCORE.RESTR>
0

>  <SCORE.RESTR.CAVITY>
0

>  <SCORE.RESTR.norm>
0

>  <SCORE.SYSTEM>
0

>  <SCORE.SYSTEM.CONST>
0

>  <SCORE.SYSTEM.DIHEDRAL>
0

>  <SCORE.SYSTEM.norm>
0

>  <SCORE.heavy>
24

>  <SCORE.norm>
-1.03397

$$$$
design_11
 OpenBabel05252019093D

 24 26  0  0  0  0  0  0  0  0999 V2000
   44.3294  -45.9431   -0.0449 C   0  0  0  0  0  0  0  0  0  0  0  0
   45.1561  -46.0453    0.9877 O   0  0  0  0  0  0  0  0  0  0  0  0
   46.3126  -46.6329    1.3594 C   0  0  0  0  0  0  0  0  0  0  0  0
   47.0831  -47.4064    0.6660 N   0  0  0  0  0  0  0  0  0  0  0  0
   48.2406  -47.9078    1.2163 C   0  0  0  0  0  0  0  0  0  0  0  0
   48.6294  -47.6215    2.4891 C   0  0  0  0  0  0  0  0  0  0  0  0
   47.8068  -46.7851    3.2552 C   0  0  0  0  0  0  0  0  0  0  0  0
   46.6497  -46.2843    2.7339 C   0  0  0  0  0  0  0  0  0  0  0  0
   45.5587  -45.6558    3.4366 C   0  0  0  0  0  0  0  0  0  0  0  0
   45.5168  -45.6818    4.8710 N   0  0  0  0  0  0  0  0  0  0  0  0
   44.9859  -44.6481    5.6041 C   0  0  0  0  0  0  0  0  0  0  0  0
   44.5693  -43.6170    5.8893 O   0  0  0  0  0  0  0  0  0  0  0  0
   44.8481  -45.3489    7.1185 N   0  0  0  0  0  0  0  0  0  0  0  0
   44.2375  -44.4819    8.0130 C   0  0  0  0  0  0  0  0  0  0  0  0
   42.9007  -45.0040    8.4087 C   0  0  0  0  0  0  0  0  0  0  0  0
   42.2927  -44.6163    9.6471 C   0  0  0  0  0  0  0  0  0  0  0  0
   40.8437  -45.5170    9.5846 S   0  0  0  0  0  0  0  0  0  0  0  0
   41.0900  -46.3163    8.0395 C   0  0  0  0  0  0  0  0  0  0  0  0
   40.1724  -47.3051    7.4549 C   0  0  0  0  0  0  0  0  0  0  0  0
   39.1949  -47.9771    8.1241 C   0  0  0  0  0  0  0  0  0  0  0  0
   38.5026  -48.8903    7.4589 C   0  0  0  0  0  0  0  0  0  0  0  0
   38.8197  -49.0958    6.1519 C   0  0  0  0  0  0  0  0  0  0  0  0
   40.0841  -47.9855    5.9029 S   0  0  0  0  0  0  0  0  0  0  0  0
   42.2041  -45.8375    7.7386 N   0  0  0  0  0  0  0  0  0  0  0  0
  1  2  1  0  0  0  0
  2  3  1  0  0  0  0
  3  4  2  0  0  0  0
  4  5  1  0  0  0  0
  5  6  2  0  0  0  0
  6  7  1  0  0  0  0
  7  8  2  0  0  0  0
  8  9  1  0  0  0  0
  8  3  1  0  0  0  0
  9 10  1  0  0  0  0
 10 11  1  0  0  0  0
 11 12  2  0  0  0  0
 11 13  1  0  0  0  0
 13 14  1  0  0  0  0
 14 15  1  0  0  0  0
 15 16  2  0  0  0  0
 16 17  1  0  0  0  0
 17 18  1  0  0  0  0
 18 19  1  0  0  0  0
 18 24  2  0  0  0  0
 19 20  2  0  0  0  0
 20 21  1  0  0  0  0
 21 22  2  0  0  0  0
 22 23  1  0  0  0  0
 23 19  1  0  0  0  0
 24 15  1  0  0  0  0
M  END
>  <CHROM.1>
0.35512839,157.49194165,146.88839694,112.61833572,155.97956882,-16.48533329
43.45590586,-46.36770207,5.45844185,0.66098571,-0.45915847,-2.07066118

>  <Name>
design_11

>  <RI>
0

>  <Rbt.Current_Directory>
/home/ziqiaoxu/icml18-jtnn/VAEdesign

>  <Rbt.Executable>
rbdock ($Id: //depot/dev/client3/rdock/2013.1/src/exe/rbdock.cxx#4 $)

>  <Rbt.Library>
libRbt.so (2013.1, Build901 2013/11/27)

>  <Rbt.Parameter_File>
/export/apps/rDock/src/rDock_2013.1_src//data/scripts/dock.prm

>  <Rbt.Receptor>
/home/ziqiaoxu/icml18-jtnn/VAEdesign/targets/RdRp-SARS-CoV-2/pocket_docking.prm

>  <SCORE>
-22.0519

>  <SCORE.INTER>
-22.6558

>  <SCORE.INTER.CONST>
1

>  <SCORE.INTER.POLAR>
-1.78885

>  <SCORE.INTER.REPUL>
0.0245367

>  <SCORE.INTER.ROT>
6

>  <SCORE.INTER.VDW>
-28.0964

>  <SCORE.INTER.norm>
-0.943992

>  <SCORE.INTRA>
0.603885

>  <SCORE.INTRA.DIHEDRAL>
1.85033

>  <SCORE.INTRA.DIHEDRAL.0>
3.73915

>  <SCORE.INTRA.POLAR>
0

>  <SCORE.INTRA.POLAR.0>
0

>  <SCORE.INTRA.REPUL>
0

>  <SCORE.INTRA.REPUL.0>
0

>  <SCORE.INTRA.VDW>
-0.321282

>  <SCORE.INTRA.VDW.0>
-2.09019

>  <SCORE.INTRA.norm>
0.0251619

>  <SCORE.RESTR>
0

>  <SCORE.RESTR.CAVITY>
0

>  <SCORE.RESTR.norm>
0

>  <SCORE.SYSTEM>
0

>  <SCORE.SYSTEM.CONST>
0

>  <SCORE.SYSTEM.DIHEDRAL>
0

>  <SCORE.SYSTEM.norm>
0

>  <SCORE.heavy>
24

>  <SCORE.norm>
-0.91883

$$$$
design_9
 OpenBabel05252019093D

 24 27  0  0  0  0  0  0  0  0999 V2000
   40.1329  -37.4257    2.5606 C   0  0  0  0  0  0  0  0  0  0  0  0
   39.8199  -37.5072    4.0311 C   0  0  0  0  0  0  0  0  0  0  0  0
   39.4625  -36.5204    4.8485 N   0  0  0  0  0  0  0  0  0  0  0  0
   39.3309  -36.9657    6.0630 N   0  0  0  0  0  0  0  0  0  0  0  0
   39.6088  -38.3012    6.0753 C   0  0  0  0  0  0  0  0  0  0  0  0
   39.5385  -39.1454    7.2606 C   0  0  0  0  0  0  0  0  0  0  0  0
   40.3880  -38.9121    8.3277 C   0  0  0  0  0  0  0  0  0  0  0  0
   40.3629  -39.7738    9.4070 C   0  0  0  0  0  0  0  0  0  0  0  0
   39.5205  -40.8912    9.5076 C   0  0  0  0  0  0  0  0  0  0  0  0
   39.6568  -41.8570   10.5816 C   0  0  0  0  0  0  0  0  0  0  0  0
   39.4557  -43.2632   10.2880 N   0  0  0  0  0  0  0  0  0  0  0  0
   40.7347  -43.8706   10.2899 C   0  0  0  0  0  0  0  0  0  0  0  0
   40.9763  -44.9291    9.3196 C   0  0  0  0  0  0  0  0  0  0  0  0
   41.8776  -45.1611    8.3047 C   0  0  0  0  0  0  0  0  0  0  0  0
   41.6894  -46.1863    7.5601 N   0  0  0  0  0  0  0  0  0  0  0  0
   40.6921  -47.0045    7.7277 C   0  0  0  0  0  0  0  0  0  0  0  0
   40.2096  -48.2331    6.9891 C   0  0  0  0  0  0  0  0  0  0  0  0
   38.9293  -48.7391    7.5528 C   0  0  0  0  0  0  0  0  0  0  0  0
   38.2791  -48.5875    6.1954 C   0  0  0  0  0  0  0  0  0  0  0  0
   39.4570  -47.7423    5.7676 C   0  0  0  0  0  0  0  0  0  0  0  0
   39.8861  -46.2851    9.0893 S   0  0  0  0  0  0  0  0  0  0  0  0
   38.6714  -41.0949    8.4324 C   0  0  0  0  0  0  0  0  0  0  0  0
   38.6950  -40.2417    7.3548 C   0  0  0  0  0  0  0  0  0  0  0  0
   39.9109  -38.6210    4.8111 N   0  0  0  0  0  0  0  0  0  0  0  0
  1  2  1  0  0  0  0
  2  3  2  0  0  0  0
  3  4  1  0  0  0  0
  4  5  1  0  0  0  0
  5  6  1  0  0  0  0
  5 24  2  0  0  0  0
  6  7  2  0  0  0  0
  7  8  1  0  0  0  0
  8  9  2  0  0  0  0
  9 10  1  0  0  0  0
  9 22  1  0  0  0  0
 10 11  1  0  0  0  0
 11 12  1  0  0  0  0
 12 13  1  0  0  0  0
 13 14  2  0  0  0  0
 14 15  1  0  0  0  0
 15 16  2  0  0  0  0
 16 17  1  0  0  0  0
 16 21  1  0  0  0  0
 17 18  1  0  0  0  0
 18 19  1  0  0  0  0
 19 20  1  0  0  0  0
 20 17  1  0  0  0  0
 21 13  1  0  0  0  0
 22 23  2  0  0  0  0
 23  6  1  0  0  0  0
 24  2  1  0  0  0  0
M  END
>  <CHROM.1>
-63.80034881,-142.00406272,106.02090321,-143.51052099,122.48934283,-175.45605474
39.87389796,-42.60632862,7.50429183,1.97301727,-1.49720064,0.16223638

>  <Name>
design_9

>  <RI>
0

>  <Rbt.Current_Directory>
/home/ziqiaoxu/icml18-jtnn/VAEdesign

>  <Rbt.Executable>
rbdock ($Id: //depot/dev/client3/rdock/2013.1/src/exe/rbdock.cxx#4 $)

>  <Rbt.Library>
libRbt.so (2013.1, Build901 2013/11/27)

>  <Rbt.Parameter_File>
/export/apps/rDock/src/rDock_2013.1_src//data/scripts/dock.prm

>  <Rbt.Receptor>
/home/ziqiaoxu/icml18-jtnn/VAEdesign/targets/RdRp-SARS-CoV-2/pocket_docking.prm

>  <SCORE>
-18.3362

>  <SCORE.INTER>
-23.0373

>  <SCORE.INTER.CONST>
1

>  <SCORE.INTER.POLAR>
-1.86513

>  <SCORE.INTER.REPUL>
0

>  <SCORE.INTER.ROT>
6

>  <SCORE.INTER.VDW>
-28.0959

>  <SCORE.INTER.norm>
-0.959889

>  <SCORE.INTRA>
4.70113

>  <SCORE.INTRA.DIHEDRAL>
9.91511

>  <SCORE.INTRA.DIHEDRAL.0>
5.04035

>  <SCORE.INTRA.POLAR>
0

>  <SCORE.INTRA.POLAR.0>
0

>  <SCORE.INTRA.REPUL>
0

>  <SCORE.INTRA.REPUL.0>
0

>  <SCORE.INTRA.VDW>
-0.25643

>  <SCORE.INTRA.VDW.0>
-1.92827

>  <SCORE.INTRA.norm>
0.19588

>  <SCORE.RESTR>
0

>  <SCORE.RESTR.CAVITY>
0

>  <SCORE.RESTR.norm>
0

>  <SCORE.SYSTEM>
0

>  <SCORE.SYSTEM.CONST>
0

>  <SCORE.SYSTEM.DIHEDRAL>
0

>  <SCORE.SYSTEM.norm>
0

>  <SCORE.heavy>
24

>  <SCORE.norm>
-0.764009

$$$$
design_15
 OpenBabel05252019093D

 25 28  0  0  0  0  0  0  0  0999 V2000
   39.8895  -42.5324    7.8269 O   0  0  0  0  0  0  0  0  0  0  0  0
   39.8415  -41.5019    8.5349 C   0  0  0  0  0  0  0  0  0  0  0  0
   39.6398  -41.5854    9.9314 N   0  0  0  0  0  0  0  0  0  0  0  0
   39.4874  -42.8438   10.5591 C   0  0  0  0  0  0  0  0  0  0  0  0
   40.6828  -43.7455   10.4556 C   0  0  0  0  0  0  0  0  0  0  0  0
   40.3978  -44.8722    9.5341 C   0  0  0  0  0  0  0  0  0  0  0  0
   40.8586  -44.9922    8.3109 N   0  0  0  0  0  0  0  0  0  0  0  0
   40.5364  -46.0324    7.5923 C   0  0  0  0  0  0  0  0  0  0  0  0
   40.9523  -46.2922    6.2752 C   0  0  0  0  0  0  0  0  0  0  0  0
   40.5579  -47.4029    5.6218 C   0  0  0  0  0  0  0  0  0  0  0  0
   39.7320  -48.3580    6.1760 C   0  0  0  0  0  0  0  0  0  0  0  0
   39.3122  -48.1221    7.4688 C   0  0  0  0  0  0  0  0  0  0  0  0
   39.7173  -46.9681    8.1579 C   0  0  0  0  0  0  0  0  0  0  0  0
   39.4577  -46.2862    9.7070 S   0  0  0  0  0  0  0  0  0  0  0  0
   40.0039  -40.2048    7.8512 C   0  0  0  0  0  0  0  0  0  0  0  0
   40.3528  -38.9878    8.4145 C   0  0  0  0  0  0  0  0  0  0  0  0
   40.3798  -38.0902    7.4186 N   0  0  0  0  0  0  0  0  0  0  0  0
   40.0735  -38.6458    6.2607 N   0  0  0  0  0  0  0  0  0  0  0  0
   40.0065  -37.9867    4.9974 C   0  0  0  0  0  0  0  0  0  0  0  0
   39.8735  -38.6678    3.8074 C   0  0  0  0  0  0  0  0  0  0  0  0
   39.8099  -38.0114    2.5878 C   0  0  0  0  0  0  0  0  0  0  0  0
   39.8841  -36.6333    2.5914 C   0  0  0  0  0  0  0  0  0  0  0  0
   40.0177  -35.9199    3.7659 C   0  0  0  0  0  0  0  0  0  0  0  0
   40.0777  -36.6012    4.9579 C   0  0  0  0  0  0  0  0  0  0  0  0
   39.8405  -39.9420    6.5102 C   0  0  0  0  0  0  0  0  0  0  0  0
  1  2  2  0  0  0  0
  2  3  1  0  0  0  0
  2 15  1  0  0  0  0
  3  4  1  0  0  0  0
  4  5  1  0  0  0  0
  5  6  1  0  0  0  0
  6  7  2  0  0  0  0
  7  8  1  0  0  0  0
  8  9  2  0  0  0  0
  9 10  1  0  0  0  0
 10 11  2  0  0  0  0
 11 12  1  0  0  0  0
 12 13  2  0  0  0  0
 13 14  1  0  0  0  0
 13  8  1  0  0  0  0
 14  6  1  0  0  0  0
 15 16  1  0  0  0  0
 16 17  2  0  0  0  0
 17 18  1  0  0  0  0
 18 19  1  0  0  0  0
 18 25  1  0  0  0  0
 19 20  2  0  0  0  0
 20 21  1  0  0  0  0
 21 22  2  0  0  0  0
 22 23  1  0  0  0  0
 23 24  2  0  0  0  0
 24 19  1  0  0  0  0
 25 15  2  0  0  0  0
M  END
>  <CHROM.1>
62.80456952,-108.90187450,105.00546838,-160.67029882,170.15351576,40.02169369
-42.25896924,7.19475845,1.70655588,-1.55161823,2.90010180

>  <Name>
design_15

>  <RI>
0

>  <Rbt.Current_Directory>
/home/ziqiaoxu/icml18-jtnn/VAEdesign

>  <Rbt.Executable>
rbdock ($Id: //depot/dev/client3/rdock/2013.1/src/exe/rbdock.cxx#4 $)

>  <Rbt.Library>
libRbt.so (2013.1, Build901 2013/11/27)

>  <Rbt.Parameter_File>
/export/apps/rDock/src/rDock_2013.1_src//data/scripts/dock.prm

>  <Rbt.Receptor>
/home/ziqiaoxu/icml18-jtnn/VAEdesign/targets/RdRp-SARS-CoV-2/pocket_docking.prm

>  <SCORE>
-21.434

>  <SCORE.INTER>
-20.5145

>  <SCORE.INTER.CONST>
1

>  <SCORE.INTER.POLAR>
-0.877249

>  <SCORE.INTER.REPUL>
0.030068

>  <SCORE.INTER.ROT>
5

>  <SCORE.INTER.VDW>
-28.0822

>  <SCORE.INTER.norm>
-0.820582

>  <SCORE.INTRA>
-0.919413

>  <SCORE.INTRA.DIHEDRAL>
-1.74626

>  <SCORE.INTRA.DIHEDRAL.0>
10.9822

>  <SCORE.INTRA.POLAR>
0

>  <SCORE.INTRA.POLAR.0>
0

>  <SCORE.INTRA.REPUL>
0

>  <SCORE.INTRA.REPUL.0>
0

>  <SCORE.INTRA.VDW>
-0.046284

>  <SCORE.INTRA.VDW.0>
-1.47142

>  <SCORE.INTRA.norm>
-0.0367765

>  <SCORE.RESTR>
0

>  <SCORE.RESTR.CAVITY>
0

>  <SCORE.RESTR.norm>
0

>  <SCORE.SYSTEM>
0

>  <SCORE.SYSTEM.CONST>
0

>  <SCORE.SYSTEM.DIHEDRAL>
0

>  <SCORE.SYSTEM.norm>
0

>  <SCORE.heavy>
25

>  <SCORE.norm>
-0.857358

$$$$
design_1
 OpenBabel05252019093D

 24 26  0  0  0  0  0  0  0  0999 V2000
   41.3773  -44.5625   10.7376 C   0  0  0  0  0  0  0  0  0  0  0  0
   40.8166  -45.4693    9.6915 C   0  0  0  0  0  0  0  0  0  0  0  0
   39.5903  -46.0885    9.8321 C   0  0  0  0  0  0  0  0  0  0  0  0
   39.0849  -46.9237    8.8576 C   0  0  0  0  0  0  0  0  0  0  0  0
   39.7926  -47.1655    7.7099 C   0  0  0  0  0  0  0  0  0  0  0  0
   39.1619  -48.2338    6.4459 S   0  0  0  0  0  0  0  0  0  0  0  0
   40.1949  -48.2205    5.3334 O   0  0  0  0  0  0  0  0  0  0  0  0
   38.9106  -49.6070    6.9347 O   0  0  0  0  0  0  0  0  0  0  0  0
   37.7397  -47.5300    5.8107 N   0  0  0  0  0  0  0  0  0  0  0  0
   37.5275  -46.1421    5.8858 C   0  0  0  0  0  0  0  0  0  0  0  0
   38.5476  -45.2556    6.0892 C   0  0  0  0  0  0  0  0  0  0  0  0
   38.3351  -43.9014    6.1695 C   0  0  0  0  0  0  0  0  0  0  0  0
   37.0578  -43.3419    6.0478 C   0  0  0  0  0  0  0  0  0  0  0  0
   36.8956  -41.9033    6.1575 C   0  0  0  0  0  0  0  0  0  0  0  0
   37.9729  -41.0482    6.2146 N   0  0  0  0  0  0  0  0  0  0  0  0
   37.5520  -39.8032    6.2950 N   0  0  0  0  0  0  0  0  0  0  0  0
   36.2263  -39.7997    6.2932 C   0  0  0  0  0  0  0  0  0  0  0  0
   35.8405  -41.1127    6.2067 N   0  0  0  0  0  0  0  0  0  0  0  0
   34.4516  -41.4787    6.1640 C   0  0  0  0  0  0  0  0  0  0  0  0
   36.0523  -44.2451    5.8456 C   0  0  0  0  0  0  0  0  0  0  0  0
   36.2638  -45.6256    5.7629 C   0  0  0  0  0  0  0  0  0  0  0  0
   41.0198  -46.5568    7.5499 C   0  0  0  0  0  0  0  0  0  0  0  0
   41.5125  -45.7245    8.5322 C   0  0  0  0  0  0  0  0  0  0  0  0
   43.0928  -44.9743    8.2661 Cl  0  0  0  0  0  0  0  0  0  0  0  0
  1  2  1  0  0  0  0
  2  3  2  0  0  0  0
  3  4  1  0  0  0  0
  4  5  2  0  0  0  0
  5  6  1  0  0  0  0
  5 22  1  0  0  0  0
  6  7  2  0  0  0  0
  6  8  2  0  0  0  0
  6  9  1  0  0  0  0
  9 10  1  0  0  0  0
 10 11  2  0  0  0  0
 11 12  1  0  0  0  0
 12 13  2  0  0  0  0
 13 14  1  0  0  0  0
 13 20  1  0  0  0  0
 14 15  2  0  0  0  0
 15 16  1  0  0  0  0
 16 17  2  0  0  0  0
 17 18  1  0  0  0  0
 18 19  1  0  0  0  0
 18 14  1  0  0  0  0
 20 21  2  0  0  0  0
 21 10  1  0  0  0  0
 22 23  2  0  0  0  0
 23 24  1  0  0  0  0
 23  2  1  0  0  0  0
M  END
>  <CHROM.1>
178.45533734,24.84283742,19.52480924,8.12205413,38.84124853,-45.00145438
7.06134291,-0.81705113,-0.54411388,0.17116443

>  <Name>
design_1

>  <RI>
0

>  <Rbt.Current_Directory>
/home/ziqiaoxu/icml18-jtnn/VAEdesign

>  <Rbt.Executable>
rbdock ($Id: //depot/dev/client3/rdock/2013.1/src/exe/rbdock.cxx#4 $)

>  <Rbt.Library>
libRbt.so (2013.1, Build901 2013/11/27)

>  <Rbt.Parameter_File>
/export/apps/rDock/src/rDock_2013.1_src//data/scripts/dock.prm

>  <Rbt.Receptor>
/home/ziqiaoxu/icml18-jtnn/VAEdesign/targets/RdRp-SARS-CoV-2/pocket_docking.prm

>  <SCORE>
-20.6737

>  <SCORE.INTER>
-18.6612

>  <SCORE.INTER.CONST>
1

>  <SCORE.INTER.POLAR>
0

>  <SCORE.INTER.REPUL>
0

>  <SCORE.INTER.ROT>
4

>  <SCORE.INTER.VDW>
-28.0612

>  <SCORE.INTER.norm>
-0.777548

>  <SCORE.INTRA>
-2.01251

>  <SCORE.INTRA.DIHEDRAL>
-5.4095

>  <SCORE.INTRA.DIHEDRAL.0>
9.46972

>  <SCORE.INTRA.POLAR>
0

>  <SCORE.INTRA.POLAR.0>
0

>  <SCORE.INTRA.REPUL>
0

>  <SCORE.INTRA.REPUL.0>
0

>  <SCORE.INTRA.VDW>
0.692239

>  <SCORE.INTRA.VDW.0>
-2.5733

>  <SCORE.INTRA.norm>
-0.0838546

>  <SCORE.RESTR>
0

>  <SCORE.RESTR.CAVITY>
0

>  <SCORE.RESTR.norm>
0

>  <SCORE.SYSTEM>
0

>  <SCORE.SYSTEM.CONST>
0

>  <SCORE.SYSTEM.DIHEDRAL>
0

>  <SCORE.SYSTEM.norm>
0

>  <SCORE.heavy>
24

>  <SCORE.norm>
-0.861403

$$$$
design_1
 OpenBabel05252019093D

 26 29  0  0  0  0  0  0  0  0999 V2000
   41.2190  -44.3578   10.9342 C   0  0  0  0  0  0  0  0  0  0  0  0
   40.7579  -45.3233    9.9064 C   0  0  0  0  0  0  0  0  0  0  0  0
   39.6702  -46.0963    9.9504 N   0  0  0  0  0  0  0  0  0  0  0  0
   39.5842  -46.8468    8.8293 C   0  0  0  0  0  0  0  0  0  0  0  0
   38.6661  -47.7753    8.3935 C   0  0  0  0  0  0  0  0  0  0  0  0
   38.8274  -48.3838    7.1810 C   0  0  0  0  0  0  0  0  0  0  0  0
   39.8920  -48.0939    6.3709 C   0  0  0  0  0  0  0  0  0  0  0  0
   40.8113  -47.1575    6.8192 C   0  0  0  0  0  0  0  0  0  0  0  0
   40.6793  -46.5264    8.0377 C   0  0  0  0  0  0  0  0  0  0  0  0
   41.4288  -45.5709    8.6997 C   0  0  0  0  0  0  0  0  0  0  0  0
   42.6242  -44.9006    8.2945 C   0  0  0  0  0  0  0  0  0  0  0  0
   43.3844  -44.4785    9.2574 O   0  0  0  0  0  0  0  0  0  0  0  0
   43.1145  -44.6275    7.0137 N   0  0  0  0  0  0  0  0  0  0  0  0
   44.3507  -43.9371    6.7711 C   0  0  0  0  0  0  0  0  0  0  0  0
   45.5137  -44.8590    6.7197 C   0  0  0  0  0  0  0  0  0  0  0  0
   45.7796  -45.3279    5.3199 C   0  0  0  0  0  0  0  0  0  0  0  0
   44.9315  -45.3275    4.2808 N   0  0  0  0  0  0  0  0  0  0  0  0
   45.5806  -45.8359    3.2052 C   0  0  0  0  0  0  0  0  0  0  0  0
   45.0592  -46.0280    1.8586 C   0  0  0  0  0  0  0  0  0  0  0  0
   43.7446  -45.7361    1.5647 C   0  0  0  0  0  0  0  0  0  0  0  0
   43.1915  -45.8962    0.3112 C   0  0  0  0  0  0  0  0  0  0  0  0
   43.9809  -46.3731   -0.7172 C   0  0  0  0  0  0  0  0  0  0  0  0
   45.2996  -46.6693   -0.4362 C   0  0  0  0  0  0  0  0  0  0  0  0
   45.8364  -46.5031    0.8238 C   0  0  0  0  0  0  0  0  0  0  0  0
   46.8161  -46.1283    3.6447 N   0  0  0  0  0  0  0  0  0  0  0  0
   46.9160  -45.8143    4.9232 O   0  0  0  0  0  0  0  0  0  0  0  0
  1  2  1  0  0  0  0
  2  3  1  0  0  0  0
  3  4  1  0  0  0  0
  4  5  2  0  0  0  0
  5  6  1  0  0  0  0
  6  7  2  0  0  0  0
  7  8  1  0  0  0  0
  8  9  2  0  0  0  0
  9 10  1  0  0  0  0
  9  4  1  0  0  0  0
 10 11  1  0  0  0  0
 10  2  2  0  0  0  0
 11 12  2  0  0  0  0
 11 13  1  0  0  0  0
 13 14  1  0  0  0  0
 14 15  1  0  0  0  0
 15 16  1  0  0  0  0
 16 17  2  0  0  0  0
 17 18  1  0  0  0  0
 18 19  1  0  0  0  0
 18 25  2  0  0  0  0
 19 20  2  0  0  0  0
 20 21  1  0  0  0  0
 21 22  2  0  0  0  0
 22 23  1  0  0  0  0
 23 24  2  0  0  0  0
 24 19  1  0  0  0  0
 25 26  1  0  0  0  0
 26 16  1  0  0  0  0
M  END
>  <CHROM.1>
28.12389033,88.15353963,91.37449561,-20.22856222,-2.94557920,43.02670723
-45.90974975,5.74843435,-2.19396845,-0.41980651,-1.85220477

>  <Name>
design_1

>  <RI>
0

>  <Rbt.Current_Directory>
/home/ziqiaoxu/icml18-jtnn/VAEdesign

>  <Rbt.Executable>
rbdock ($Id: //depot/dev/client3/rdock/2013.1/src/exe/rbdock.cxx#4 $)

>  <Rbt.Library>
libRbt.so (2013.1, Build901 2013/11/27)

>  <Rbt.Parameter_File>
/export/apps/rDock/src/rDock_2013.1_src//data/scripts/dock.prm

>  <Rbt.Receptor>
/home/ziqiaoxu/icml18-jtnn/VAEdesign/targets/RdRp-SARS-CoV-2/pocket_docking.prm

>  <SCORE>
-20.4447

>  <SCORE.INTER>
-21.1261

>  <SCORE.INTER.CONST>
1

>  <SCORE.INTER.POLAR>
-1.0198

>  <SCORE.INTER.REPUL>
0

>  <SCORE.INTER.ROT>
5

>  <SCORE.INTER.VDW>
-28.0587

>  <SCORE.INTER.norm>
-0.812541

>  <SCORE.INTRA>
0.681368

>  <SCORE.INTRA.DIHEDRAL>
3.76354

>  <SCORE.INTRA.DIHEDRAL.0>
4.08897

>  <SCORE.INTRA.POLAR>
0

>  <SCORE.INTRA.POLAR.0>
0

>  <SCORE.INTRA.REPUL>
0

>  <SCORE.INTRA.REPUL.0>
0

>  <SCORE.INTRA.VDW>
-1.2004

>  <SCORE.INTRA.VDW.0>
0.466551

>  <SCORE.INTRA.norm>
0.0262064

>  <SCORE.RESTR>
0

>  <SCORE.RESTR.CAVITY>
0

>  <SCORE.RESTR.norm>
0

>  <SCORE.SYSTEM>
0

>  <SCORE.SYSTEM.CONST>
0

>  <SCORE.SYSTEM.DIHEDRAL>
0

>  <SCORE.SYSTEM.norm>
0

>  <SCORE.heavy>
26

>  <SCORE.norm>
-0.786335

$$$$
design_1
 OpenBabel05252019093D

 27 29  0  0  0  0  0  0  0  0999 V2000
   50.2472  -48.2995    4.3776 N   0  0  0  0  0  0  0  0  0  0  0  0
   49.8323  -47.2594    3.5478 C   0  0  0  0  0  0  0  0  0  0  0  0
   49.6472  -46.1216    4.0890 O   0  0  0  0  0  0  0  0  0  0  0  0
   49.5871  -47.3607    2.1018 C   0  0  0  0  0  0  0  0  0  0  0  0
   48.3541  -46.7691    1.6493 N   0  0  0  0  0  0  0  0  0  0  0  0
   47.1279  -46.9321    2.3637 C   0  0  0  0  0  0  0  0  0  0  0  0
   47.2185  -47.6413    3.4139 O   0  0  0  0  0  0  0  0  0  0  0  0
   45.8939  -46.3167    1.8923 C   0  0  0  0  0  0  0  0  0  0  0  0
   45.6487  -46.2414    0.5184 C   0  0  0  0  0  0  0  0  0  0  0  0
   44.4499  -45.7424    0.0615 C   0  0  0  0  0  0  0  0  0  0  0  0
   43.4811  -45.3129    0.9258 C   0  0  0  0  0  0  0  0  0  0  0  0
   43.6928  -45.3719    2.2987 C   0  0  0  0  0  0  0  0  0  0  0  0
   44.9129  -45.8789    2.7776 C   0  0  0  0  0  0  0  0  0  0  0  0
   45.1622  -45.8183    4.1494 N   0  0  0  0  0  0  0  0  0  0  0  0
   44.4530  -45.0259    5.0738 C   0  0  0  0  0  0  0  0  0  0  0  0
   43.5008  -44.2886    4.7695 O   0  0  0  0  0  0  0  0  0  0  0  0
   44.8320  -45.0349    6.5401 C   0  0  0  0  0  0  0  0  0  0  0  0
   43.6396  -45.2034    7.4069 C   0  0  0  0  0  0  0  0  0  0  0  0
   43.4887  -44.4905    8.5784 C   0  0  0  0  0  0  0  0  0  0  0  0
   42.3647  -44.6548    9.3875 C   0  0  0  0  0  0  0  0  0  0  0  0
   41.3702  -45.5381    9.0366 C   0  0  0  0  0  0  0  0  0  0  0  0
   40.2491  -45.7008    9.8456 C   0  0  0  0  0  0  0  0  0  0  0  0
   39.2391  -46.5821    9.5119 C   0  0  0  0  0  0  0  0  0  0  0  0
   39.3836  -47.2991    8.3405 C   0  0  0  0  0  0  0  0  0  0  0  0
   40.4972  -47.1368    7.5381 C   0  0  0  0  0  0  0  0  0  0  0  0
   41.5060  -46.2535    7.8756 C   0  0  0  0  0  0  0  0  0  0  0  0
   42.6266  -46.0859    7.0743 C   0  0  0  0  0  0  0  0  0  0  0  0
  1  2  1  0  0  0  0
  2  3  2  0  0  0  0
  2  4  1  0  0  0  0
  4  5  1  0  0  0  0
  5  6  1  0  0  0  0
  6  7  2  0  0  0  0
  6  8  1  0  0  0  0
  8  9  2  0  0  0  0
  9 10  1  0  0  0  0
 10 11  2  0  0  0  0
 11 12  1  0  0  0  0
 12 13  2  0  0  0  0
 13 14  1  0  0  0  0
 13  8  1  0  0  0  0
 14 15  1  0  0  0  0
 15 16  2  0  0  0  0
 15 17  1  0  0  0  0
 17 18  1  0  0  0  0
 18 19  2  0  0  0  0
 19 20  1  0  0  0  0
 20 21  2  0  0  0  0
 21 22  1  0  0  0  0
 22 23  2  0  0  0  0
 23 24  1  0  0  0  0
 24 25  2  0  0  0  0
 25 26  1  0  0  0  0
 26 27  2  0  0  0  0
 26 21  1  0  0  0  0
 27 18  1  0  0  0  0
M  END
>  <CHROM.1>
132.94522866,-42.54994860,36.50194131,158.64214595,-132.17038989,-139.21396074
44.67252436,-46.11026273,4.95106707,-0.71755128,-0.18617713,1.63404907

>  <Name>
design_1

>  <RI>
0

>  <Rbt.Current_Directory>
/home/ziqiaoxu/icml18-jtnn/VAEdesign

>  <Rbt.Executable>
rbdock ($Id: //depot/dev/client3/rdock/2013.1/src/exe/rbdock.cxx#4 $)

>  <Rbt.Library>
libRbt.so (2013.1, Build901 2013/11/27)

>  <Rbt.Parameter_File>
/export/apps/rDock/src/rDock_2013.1_src//data/scripts/dock.prm

>  <Rbt.Receptor>
/home/ziqiaoxu/icml18-jtnn/VAEdesign/targets/RdRp-SARS-CoV-2/pocket_docking.prm

>  <SCORE>
-20.4293

>  <SCORE.INTER>
-22.6576

>  <SCORE.INTER.CONST>
1

>  <SCORE.INTER.POLAR>
-1.7718

>  <SCORE.INTER.REPUL>
0

>  <SCORE.INTER.ROT>
6

>  <SCORE.INTER.VDW>
-28.0334

>  <SCORE.INTER.norm>
-0.839169

>  <SCORE.INTRA>
1.92035

>  <SCORE.INTRA.DIHEDRAL>
2.79032

>  <SCORE.INTRA.DIHEDRAL.0>
7.01221

>  <SCORE.INTRA.POLAR>
0

>  <SCORE.INTRA.POLAR.0>
0

>  <SCORE.INTRA.REPUL>
0

>  <SCORE.INTRA.REPUL.0>
0

>  <SCORE.INTRA.VDW>
0.525194

>  <SCORE.INTRA.VDW.0>
-1.39462

>  <SCORE.INTRA.norm>
0.0711241

>  <SCORE.RESTR>
0.30788

>  <SCORE.RESTR.CAVITY>
0.30788

>  <SCORE.RESTR.norm>
0.011403

>  <SCORE.SYSTEM>
0

>  <SCORE.SYSTEM.CONST>
0

>  <SCORE.SYSTEM.DIHEDRAL>
0

>  <SCORE.SYSTEM.norm>
0

>  <SCORE.heavy>
27

>  <SCORE.norm>
-0.756642

$$$$
design_3
 OpenBabel05252019093D

 25 28  0  0  0  0  0  0  0  0999 V2000
   45.0191  -43.4975    5.1889 O   0  0  0  0  0  0  0  0  0  0  0  0
   45.2780  -44.7248    5.4219 C   0  0  0  0  0  0  0  0  0  0  0  0
   45.7308  -45.5881    4.3009 C   0  0  0  0  0  0  0  0  0  0  0  0
   44.7192  -45.6015    3.2421 C   0  0  0  0  0  0  0  0  0  0  0  0
   43.4288  -45.2813    3.3900 N   0  0  0  0  0  0  0  0  0  0  0  0
   42.7930  -45.3980    2.2462 O   0  0  0  0  0  0  0  0  0  0  0  0
   43.6474  -45.7975    1.3151 C   0  0  0  0  0  0  0  0  0  0  0  0
   43.4787  -46.0642   -0.0350 C   0  0  0  0  0  0  0  0  0  0  0  0
   44.5704  -46.4694   -0.7579 C   0  0  0  0  0  0  0  0  0  0  0  0
   45.8172  -46.6178   -0.1870 C   0  0  0  0  0  0  0  0  0  0  0  0
   45.9626  -46.3476    1.1561 C   0  0  0  0  0  0  0  0  0  0  0  0
   44.8780  -45.9343    1.9222 C   0  0  0  0  0  0  0  0  0  0  0  0
   45.1292  -45.2374    6.7398 N   0  0  0  0  0  0  0  0  0  0  0  0
   44.6909  -44.3549    7.7752 C   0  0  0  0  0  0  0  0  0  0  0  0
   43.3458  -44.8127    8.2988 C   0  0  0  0  0  0  0  0  0  0  0  0
   42.5420  -45.7226    7.7817 N   0  0  0  0  0  0  0  0  0  0  0  0
   41.4158  -45.9974    8.3637 C   0  0  0  0  0  0  0  0  0  0  0  0
   40.4624  -47.0132    7.8245 C   0  0  0  0  0  0  0  0  0  0  0  0
   39.3571  -47.4239    8.5389 C   0  0  0  0  0  0  0  0  0  0  0  0
   38.4594  -48.3609    8.0712 C   0  0  0  0  0  0  0  0  0  0  0  0
   38.6936  -48.9049    6.8252 C   0  0  0  0  0  0  0  0  0  0  0  0
   39.8009  -48.4868    6.1208 C   0  0  0  0  0  0  0  0  0  0  0  0
   40.6476  -47.5692    6.6200 N   0  0  0  0  0  0  0  0  0  0  0  0
   41.1196  -45.3050    9.5160 C   0  0  0  0  0  0  0  0  0  0  0  0
   42.4891  -44.3013    9.6831 S   0  0  0  0  0  0  0  0  0  0  0  0
  1  2  2  0  0  0  0
  2  3  1  0  0  0  0
  2 13  1  0  0  0  0
  3  4  1  0  0  0  0
  4  5  2  0  0  0  0
  5  6  1  0  0  0  0
  6  7  1  0  0  0  0
  7  8  2  0  0  0  0
  8  9  1  0  0  0  0
  9 10  2  0  0  0  0
 10 11  1  0  0  0  0
 11 12  2  0  0  0  0
 12  4  1  0  0  0  0
 12  7  1  0  0  0  0
 13 14  1  0  0  0  0
 14 15  1  0  0  0  0
 15 16  2  0  0  0  0
 16 17  1  0  0  0  0
 17 18  1  0  0  0  0
 17 24  2  0  0  0  0
 18 19  2  0  0  0  0
 19 20  1  0  0  0  0
 20 21  2  0  0  0  0
 21 22  1  0  0  0  0
 22 23  2  0  0  0  0
 23 18  1  0  0  0  0
 24 25  1  0  0  0  0
 25 15  1  0  0  0  0
M  END
>  <CHROM.1>
-58.68658443,-20.39088871,115.90817662,-11.17366826,171.29067666,42.94191522
-45.91182621,5.41493536,-0.97427537,0.58264203,1.27277718

>  <Name>
design_3

>  <RI>
0

>  <Rbt.Current_Directory>
/home/ziqiaoxu/icml18-jtnn/VAEdesign

>  <Rbt.Executable>
rbdock ($Id: //depot/dev/client3/rdock/2013.1/src/exe/rbdock.cxx#4 $)

>  <Rbt.Library>
libRbt.so (2013.1, Build901 2013/11/27)

>  <Rbt.Parameter_File>
/export/apps/rDock/src/rDock_2013.1_src//data/scripts/dock.prm

>  <Rbt.Receptor>
/home/ziqiaoxu/icml18-jtnn/VAEdesign/targets/RdRp-SARS-CoV-2/pocket_docking.prm

>  <SCORE>
-20.4444

>  <SCORE.INTER>
-20.6356

>  <SCORE.INTER.CONST>
1

>  <SCORE.INTER.POLAR>
-0.88846

>  <SCORE.INTER.REPUL>
0

>  <SCORE.INTER.ROT>
5

>  <SCORE.INTER.VDW>
-28.0148

>  <SCORE.INTER.norm>
-0.825423

>  <SCORE.INTRA>
0.191141

>  <SCORE.INTRA.DIHEDRAL>
0.297038

>  <SCORE.INTRA.DIHEDRAL.0>
5.23106

>  <SCORE.INTRA.POLAR>
0

>  <SCORE.INTRA.POLAR.0>
0

>  <SCORE.INTRA.REPUL>
0

>  <SCORE.INTRA.REPUL.0>
0

>  <SCORE.INTRA.VDW>
0.0426221

>  <SCORE.INTRA.VDW.0>
-1.36111

>  <SCORE.INTRA.norm>
0.00764564

>  <SCORE.RESTR>
0

>  <SCORE.RESTR.CAVITY>
0

>  <SCORE.RESTR.norm>
0

>  <SCORE.SYSTEM>
0

>  <SCORE.SYSTEM.CONST>
0

>  <SCORE.SYSTEM.DIHEDRAL>
0

>  <SCORE.SYSTEM.norm>
0

>  <SCORE.heavy>
25

>  <SCORE.norm>
-0.817777

$$$$
design_6
 OpenBabel05252019093D

 26 29  0  0  0  0  0  0  0  0999 V2000
   41.1571  -44.5206   10.9267 C   0  0  0  0  0  0  0  0  0  0  0  0
   40.6722  -45.4762    9.8818 C   0  0  0  0  0  0  0  0  0  0  0  0
   39.5154  -46.1701    9.9206 N   0  0  0  0  0  0  0  0  0  0  0  0
   39.4720  -46.9008    8.7972 C   0  0  0  0  0  0  0  0  0  0  0  0
   38.4928  -47.7836    8.3585 C   0  0  0  0  0  0  0  0  0  0  0  0
   38.6443  -48.4421    7.1572 C   0  0  0  0  0  0  0  0  0  0  0  0
   39.7688  -48.2252    6.3890 C   0  0  0  0  0  0  0  0  0  0  0  0
   40.7460  -47.3414    6.8314 C   0  0  0  0  0  0  0  0  0  0  0  0
   40.6103  -46.6769    8.0265 C   0  0  0  0  0  0  0  0  0  0  0  0
   41.3615  -45.7696    8.7304 C   0  0  0  0  0  0  0  0  0  0  0  0
   42.6520  -45.2279    8.3161 C   0  0  0  0  0  0  0  0  0  0  0  0
   43.3572  -44.2333    8.9157 N   0  0  0  0  0  0  0  0  0  0  0  0
   44.4856  -44.0351    8.2281 N   0  0  0  0  0  0  0  0  0  0  0  0
   44.5433  -44.8749    7.1875 C   0  0  0  0  0  0  0  0  0  0  0  0
   45.5844  -45.0276    6.1410 C   0  0  0  0  0  0  0  0  0  0  0  0
   45.4749  -44.0112    5.0686 C   0  0  0  0  0  0  0  0  0  0  0  0
   45.5380  -44.6185    3.7670 N   0  0  0  0  0  0  0  0  0  0  0  0
   44.4217  -44.9945    2.9952 C   0  0  0  0  0  0  0  0  0  0  0  0
   43.2645  -44.7916    3.4746 O   0  0  0  0  0  0  0  0  0  0  0  0
   44.5170  -45.6059    1.6718 C   0  0  0  0  0  0  0  0  0  0  0  0
   45.7507  -45.9765    1.1768 C   0  0  0  0  0  0  0  0  0  0  0  0
   45.8388  -46.5529   -0.0710 C   0  0  0  0  0  0  0  0  0  0  0  0
   44.7534  -46.7918   -0.8809 C   0  0  0  0  0  0  0  0  0  0  0  0
   43.5237  -46.4209   -0.3843 C   0  0  0  0  0  0  0  0  0  0  0  0
   43.4159  -45.8332    0.8831 C   0  0  0  0  0  0  0  0  0  0  0  0
   43.3921  -45.6066    7.2636 N   0  0  0  0  0  0  0  0  0  0  0  0
  1  2  1  0  0  0  0
  2  3  1  0  0  0  0
  3  4  1  0  0  0  0
  4  5  2  0  0  0  0
  5  6  1  0  0  0  0
  6  7  2  0  0  0  0
  7  8  1  0  0  0  0
  8  9  2  0  0  0  0
  9 10  1  0  0  0  0
  9  4  1  0  0  0  0
 10 11  1  0  0  0  0
 10  2  2  0  0  0  0
 11 12  2  0  0  0  0
 12 13  1  0  0  0  0
 13 14  1  0  0  0  0
 14 15  1  0  0  0  0
 14 26  2  0  0  0  0
 15 16  1  0  0  0  0
 16 17  1  0  0  0  0
 17 18  1  0  0  0  0
 18 19  2  0  0  0  0
 18 20  1  0  0  0  0
 20 21  2  0  0  0  0
 21 22  1  0  0  0  0
 22 23  2  0  0  0  0
 23 24  1  0  0  0  0
 24 25  2  0  0  0  0
 25 20  1  0  0  0  0
 26 11  1  0  0  0  0
M  END
>  <CHROM.1>
-7.21217046,-80.17381196,-131.76136638,94.81768445,7.03587254,42.76559734
-45.79904427,5.74658288,-2.16786310,-0.54591143,-1.86470024

>  <Name>
design_6

>  <RI>
0

>  <Rbt.Current_Directory>
/home/ziqiaoxu/icml18-jtnn/VAEdesign

>  <Rbt.Executable>
rbdock ($Id: //depot/dev/client3/rdock/2013.1/src/exe/rbdock.cxx#4 $)

>  <Rbt.Library>
libRbt.so (2013.1, Build901 2013/11/27)

>  <Rbt.Parameter_File>
/export/apps/rDock/src/rDock_2013.1_src//data/scripts/dock.prm

>  <Rbt.Receptor>
/home/ziqiaoxu/icml18-jtnn/VAEdesign/targets/RdRp-SARS-CoV-2/pocket_docking.prm

>  <SCORE>
-24.0167

>  <SCORE.INTER>
-21.05

>  <SCORE.INTER.CONST>
1

>  <SCORE.INTER.POLAR>
-1.0198

>  <SCORE.INTER.REPUL>
0

>  <SCORE.INTER.ROT>
5

>  <SCORE.INTER.VDW>
-27.9826

>  <SCORE.INTER.norm>
-0.809614

>  <SCORE.INTRA>
-2.96674

>  <SCORE.INTRA.DIHEDRAL>
-6.05741

>  <SCORE.INTRA.DIHEDRAL.0>
13.9499

>  <SCORE.INTRA.POLAR>
0

>  <SCORE.INTRA.POLAR.0>
0

>  <SCORE.INTRA.REPUL>
0

>  <SCORE.INTRA.REPUL.0>
0

>  <SCORE.INTRA.VDW>
0.061968

>  <SCORE.INTRA.VDW.0>
-1.75318

>  <SCORE.INTRA.norm>
-0.114105

>  <SCORE.RESTR>
0

>  <SCORE.RESTR.CAVITY>
0

>  <SCORE.RESTR.norm>
0

>  <SCORE.SYSTEM>
0

>  <SCORE.SYSTEM.CONST>
0

>  <SCORE.SYSTEM.DIHEDRAL>
0

>  <SCORE.SYSTEM.norm>
0

>  <SCORE.heavy>
26

>  <SCORE.norm>
-0.92372

$$$$
design_11
 OpenBabel05252019093D

 24 26  0  0  0  0  0  0  0  0999 V2000
   41.3043  -44.4059   10.9126 C   0  0  0  0  0  0  0  0  0  0  0  0
   40.9014  -45.3315    9.8231 C   0  0  0  0  0  0  0  0  0  0  0  0
   39.7998  -46.1398    9.8501 N   0  0  0  0  0  0  0  0  0  0  0  0
   39.7106  -46.8553    8.7328 C   0  0  0  0  0  0  0  0  0  0  0  0
   38.7876  -47.8025    8.2896 C   0  0  0  0  0  0  0  0  0  0  0  0
   38.9087  -48.4147    7.0779 C   0  0  0  0  0  0  0  0  0  0  0  0
   39.9608  -48.1071    6.2520 C   0  0  0  0  0  0  0  0  0  0  0  0
   40.8782  -47.1702    6.6850 C   0  0  0  0  0  0  0  0  0  0  0  0
   40.7755  -46.5408    7.9026 C   0  0  0  0  0  0  0  0  0  0  0  0
   41.5123  -45.5776    8.6121 C   0  0  0  0  0  0  0  0  0  0  0  0
   42.7145  -44.9730    8.0799 C   0  0  0  0  0  0  0  0  0  0  0  0
   43.2009  -43.9528    8.7099 O   0  0  0  0  0  0  0  0  0  0  0  0
   43.4530  -45.3366    6.9536 N   0  0  0  0  0  0  0  0  0  0  0  0
   44.6685  -44.6089    6.5395 C   0  0  0  0  0  0  0  0  0  0  0  0
   45.4279  -45.3761    5.5556 C   0  0  0  0  0  0  0  0  0  0  0  0
   46.0676  -45.9930    4.7397 C   0  0  0  0  0  0  0  0  0  0  0  0
   46.8637  -46.7265    3.7556 C   0  0  0  0  0  0  0  0  0  0  0  0
   46.7739  -46.1847    2.4800 O   0  0  0  0  0  0  0  0  0  0  0  0
   45.6735  -46.0970    1.6655 C   0  0  0  0  0  0  0  0  0  0  0  0
   44.4299  -45.8091    2.1618 C   0  0  0  0  0  0  0  0  0  0  0  0
   43.3099  -45.7207    1.3325 C   0  0  0  0  0  0  0  0  0  0  0  0
   43.4611  -45.9288   -0.0223 C   0  0  0  0  0  0  0  0  0  0  0  0
   44.7046  -46.2201   -0.5454 C   0  0  0  0  0  0  0  0  0  0  0  0
   45.8018  -46.3008    0.3122 C   0  0  0  0  0  0  0  0  0  0  0  0
  1  2  1  0  0  0  0
  2  3  1  0  0  0  0
  3  4  1  0  0  0  0
  4  5  2  0  0  0  0
  5  6  1  0  0  0  0
  6  7  2  0  0  0  0
  7  8  1  0  0  0  0
  8  9  2  0  0  0  0
  9 10  1  0  0  0  0
  9  4  1  0  0  0  0
 10 11  1  0  0  0  0
 10  2  2  0  0  0  0
 11 12  2  0  0  0  0
 11 13  1  0  0  0  0
 13 14  1  0  0  0  0
 14 15  1  0  0  0  0
 15 16  3  0  0  0  0
 16 17  1  0  0  0  0
 17 18  1  0  0  0  0
 18 19  1  0  0  0  0
 19 20  2  0  0  0  0
 20 21  1  0  0  0  0
 21 22  2  0  0  0  0
 22 23  1  0  0  0  0
 23 24  2  0  0  0  0
 24 19  1  0  0  0  0
M  END
>  <CHROM.1>
-10.06190221,165.63875439,170.76675309,-91.62695676,-64.57422232,38.65879823
42.90867396,-46.03804726,5.69332243,-2.20925674,-0.42625953,-1.86205951

>  <Name>
design_11

>  <RI>
0

>  <Rbt.Current_Directory>
/home/ziqiaoxu/icml18-jtnn/VAEdesign

>  <Rbt.Executable>
rbdock ($Id: //depot/dev/client3/rdock/2013.1/src/exe/rbdock.cxx#4 $)

>  <Rbt.Library>
libRbt.so (2013.1, Build901 2013/11/27)

>  <Rbt.Parameter_File>
/export/apps/rDock/src/rDock_2013.1_src//data/scripts/dock.prm

>  <Rbt.Receptor>
/home/ziqiaoxu/icml18-jtnn/VAEdesign/targets/RdRp-SARS-CoV-2/pocket_docking.prm

>  <SCORE>
-19.4844

>  <SCORE.INTER>
-20.0478

>  <SCORE.INTER.CONST>
1

>  <SCORE.INTER.POLAR>
-1.0198

>  <SCORE.INTER.REPUL>
0

>  <SCORE.INTER.ROT>
6

>  <SCORE.INTER.VDW>
-27.9804

>  <SCORE.INTER.norm>
-0.835323

>  <SCORE.INTRA>
0.563318

>  <SCORE.INTRA.DIHEDRAL>
2.27825

>  <SCORE.INTRA.DIHEDRAL.0>
1.27327

>  <SCORE.INTRA.POLAR>
0

>  <SCORE.INTRA.POLAR.0>
0

>  <SCORE.INTRA.REPUL>
0

>  <SCORE.INTRA.REPUL.0>
0

>  <SCORE.INTRA.VDW>
-0.575809

>  <SCORE.INTRA.VDW.0>
-0.480907

>  <SCORE.INTRA.norm>
0.0234716

>  <SCORE.RESTR>
0

>  <SCORE.RESTR.CAVITY>
0

>  <SCORE.RESTR.norm>
0

>  <SCORE.SYSTEM>
0

>  <SCORE.SYSTEM.CONST>
0

>  <SCORE.SYSTEM.DIHEDRAL>
0

>  <SCORE.SYSTEM.norm>
0

>  <SCORE.heavy>
24

>  <SCORE.norm>
-0.811852

$$$$
design_12
 OpenBabel05252019093D

 22 24  0  0  0  0  0  0  0  0999 V2000
   39.0355  -48.7452    6.2497 C   0  0  0  0  0  0  0  0  0  0  0  0
   38.2395  -47.7306    7.0205 C   0  0  2  0  0  0  0  0  0  0  0  0
   37.4661  -46.8558    6.1191 C   0  0  0  0  0  0  0  0  0  0  0  0
   37.1456  -47.3022    4.9962 O   0  0  0  0  0  0  0  0  0  0  0  0
   37.0824  -45.5548    6.4745 N   0  0  0  0  0  0  0  0  0  0  0  0
   36.3365  -44.6464    5.6643 C   0  0  0  0  0  0  0  0  0  0  0  0
   36.6296  -43.1926    6.0159 C   0  0  0  0  0  0  0  0  0  0  0  0
   37.8816  -42.8600    6.4702 C   0  0  0  0  0  0  0  0  0  0  0  0
   37.7320  -41.1794    6.7284 S   0  0  0  0  0  0  0  0  0  0  0  0
   36.1072  -40.9974    6.2504 C   0  0  0  0  0  0  0  0  0  0  0  0
   35.3734  -39.9423    6.2112 O   0  0  0  0  0  0  0  0  0  0  0  0
   35.7511  -42.2402    5.9127 N   0  0  0  0  0  0  0  0  0  0  0  0
   39.2339  -46.9390    7.8398 C   0  0  0  0  0  0  0  0  0  0  0  0
   40.4557  -46.5680    7.5128 N   0  0  0  0  0  0  0  0  0  0  0  0
   41.1737  -45.8861    8.3490 C   0  0  0  0  0  0  0  0  0  0  0  0
   42.5606  -45.4536    8.0028 C   0  0  0  0  0  0  0  0  0  0  0  0
   43.2831  -45.7961    6.8954 C   0  0  0  0  0  0  0  0  0  0  0  0
   44.5233  -45.2843    6.7901 C   0  0  0  0  0  0  0  0  0  0  0  0
   44.9535  -44.4666    7.7989 C   0  0  0  0  0  0  0  0  0  0  0  0
   43.6198  -44.4357    8.8613 S   0  0  0  0  0  0  0  0  0  0  0  0
   40.6045  -45.5800    9.5631 C   0  0  0  0  0  0  0  0  0  0  0  0
   39.0638  -46.3018    9.4126 S   0  0  0  0  0  0  0  0  0  0  0  0
  2  1  1  6  0  0  0
  2  3  1  0  0  0  0
  2 13  1  0  0  0  0
  3  4  2  0  0  0  0
  3  5  1  0  0  0  0
  5  6  1  0  0  0  0
  6  7  1  0  0  0  0
  7  8  2  0  0  0  0
  8  9  1  0  0  0  0
  9 10  1  0  0  0  0
 10 11  2  0  0  0  0
 10 12  1  0  0  0  0
 12  7  1  0  0  0  0
 13 14  2  0  0  0  0
 14 15  1  0  0  0  0
 15 16  1  0  0  0  0
 15 21  2  0  0  0  0
 16 17  2  0  0  0  0
 17 18  1  0  0  0  0
 18 19  2  0  0  0  0
 19 20  1  0  0  0  0
 20 16  1  0  0  0  0
 21 22  1  0  0  0  0
 22 13  1  0  0  0  0
M  END
>  <CHROM.1>
25.98032536,-153.40797528,31.57239993,36.34834614,-6.72549956,39.33780085
-44.74780976,7.21962037,0.45410276,0.28916565,3.13433343

>  <Name>
design_12

>  <RI>
0

>  <Rbt.Current_Directory>
/home/ziqiaoxu/icml18-jtnn/VAEdesign

>  <Rbt.Executable>
rbdock ($Id: //depot/dev/client3/rdock/2013.1/src/exe/rbdock.cxx#4 $)

>  <Rbt.Library>
libRbt.so (2013.1, Build901 2013/11/27)

>  <Rbt.Parameter_File>
/export/apps/rDock/src/rDock_2013.1_src//data/scripts/dock.prm

>  <Rbt.Receptor>
/home/ziqiaoxu/icml18-jtnn/VAEdesign/targets/RdRp-SARS-CoV-2/pocket_docking.prm

>  <SCORE>
-16.2099

>  <SCORE.INTER>
-18.9361

>  <SCORE.INTER.CONST>
1

>  <SCORE.INTER.POLAR>
-0.555208

>  <SCORE.INTER.REPUL>
0.100861

>  <SCORE.INTER.ROT>
5

>  <SCORE.INTER.VDW>
-27.9527

>  <SCORE.INTER.norm>
-0.860732

>  <SCORE.INTRA>
2.72624

>  <SCORE.INTRA.DIHEDRAL>
0.191844

>  <SCORE.INTRA.DIHEDRAL.0>
5.10544

>  <SCORE.INTRA.POLAR>
0

>  <SCORE.INTRA.POLAR.0>
0

>  <SCORE.INTRA.REPUL>
0

>  <SCORE.INTRA.REPUL.0>
0

>  <SCORE.INTRA.VDW>
2.63032

>  <SCORE.INTRA.VDW.0>
-3.02845

>  <SCORE.INTRA.norm>
0.12392

>  <SCORE.RESTR>
0

>  <SCORE.RESTR.CAVITY>
0

>  <SCORE.RESTR.norm>
0

>  <SCORE.SYSTEM>
0

>  <SCORE.SYSTEM.CONST>
0

>  <SCORE.SYSTEM.DIHEDRAL>
0

>  <SCORE.SYSTEM.norm>
0

>  <SCORE.heavy>
22

>  <SCORE.norm>
-0.736812

$$$$
design_18
 OpenBabel05252019093D

 26 28  0  0  0  0  0  0  0  0999 V2000
   42.0962  -42.5486    1.3222 C   0  0  0  0  0  0  0  0  0  0  0  0
   42.5505  -43.6486    2.1421 N   0  0  0  0  0  0  0  0  0  0  0  0
   42.3029  -45.0330    1.7991 C   0  0  0  0  0  0  0  0  0  0  0  0
   43.4985  -45.6071    1.0913 C   0  0  0  0  0  0  0  0  0  0  0  0
   44.7035  -45.9639    1.6317 C   0  0  0  0  0  0  0  0  0  0  0  0
   45.6306  -46.4582    0.8055 C   0  0  0  0  0  0  0  0  0  0  0  0
   45.2983  -46.5678   -0.5195 C   0  0  0  0  0  0  0  0  0  0  0  0
   43.6997  -45.9745   -0.5585 S   0  0  0  0  0  0  0  0  0  0  0  0
   43.2713  -43.3662    3.3298 C   0  0  0  0  0  0  0  0  0  0  0  0
   43.5056  -42.1475    3.6428 O   0  0  0  0  0  0  0  0  0  0  0  0
   43.7539  -44.3697    4.2023 N   0  0  0  0  0  0  0  0  0  0  0  0
   44.4739  -44.0144    5.3825 C   0  0  0  0  0  0  0  0  0  0  0  0
   44.6726  -45.1765    6.3254 C   0  0  0  0  0  0  0  0  0  0  0  0
   43.4313  -45.6624    6.8651 N   0  0  0  0  0  0  0  0  0  0  0  0
   42.9333  -45.0930    8.0574 C   0  0  0  0  0  0  0  0  0  0  0  0
   43.5667  -44.1769    8.6351 O   0  0  0  0  0  0  0  0  0  0  0  0
   41.6830  -45.5566    8.6338 C   0  0  0  0  0  0  0  0  0  0  0  0
   41.3010  -45.1577    9.8941 C   0  0  0  0  0  0  0  0  0  0  0  0
   40.1164  -45.5930   10.4483 C   0  0  0  0  0  0  0  0  0  0  0  0
   39.3181  -46.4346    9.7223 C   0  0  0  0  0  0  0  0  0  0  0  0
   39.6700  -46.8513    8.4624 C   0  0  0  0  0  0  0  0  0  0  0  0
   38.8627  -47.6965    7.7398 C   0  0  0  0  0  0  0  0  0  0  0  0
   39.2700  -48.0772    6.4854 C   0  0  0  0  0  0  0  0  0  0  0  0
   40.4549  -47.6251    5.9648 C   0  0  0  0  0  0  0  0  0  0  0  0
   41.2265  -46.7993    6.6915 N   0  0  0  0  0  0  0  0  0  0  0  0
   40.8522  -46.4028    7.9378 C   0  0  0  0  0  0  0  0  0  0  0  0
  1  2  1  0  0  0  0
  2  3  1  0  0  0  0
  2  9  1  0  0  0  0
  3  4  1  0  0  0  0
  4  5  2  0  0  0  0
  5  6  1  0  0  0  0
  6  7  2  0  0  0  0
  7  8  1  0  0  0  0
  8  4  1  0  0  0  0
  9 10  2  0  0  0  0
  9 11  1  0  0  0  0
 11 12  1  0  0  0  0
 12 13  1  0  0  0  0
 13 14  1  0  0  0  0
 14 15  1  0  0  0  0
 15 16  2  0  0  0  0
 15 17  1  0  0  0  0
 17 18  2  0  0  0  0
 18 19  1  0  0  0  0
 19 20  2  0  0  0  0
 20 21  1  0  0  0  0
 21 22  2  0  0  0  0
 22 23  1  0  0  0  0
 23 24  2  0  0  0  0
 24 25  1  0  0  0  0
 25 26  2  0  0  0  0
 26 17  1  0  0  0  0
 26 21  1  0  0  0  0
M  END
>  <CHROM.1>
96.50415693,74.03367820,168.61649544,-65.10693255,-88.99675426,169.75536975
42.50141958,-45.42749936,4.90400479,-1.00513249,0.79569229,1.26969498

>  <Name>
design_18

>  <RI>
0

>  <Rbt.Current_Directory>
/home/ziqiaoxu/icml18-jtnn/VAEdesign

>  <Rbt.Executable>
rbdock ($Id: //depot/dev/client3/rdock/2013.1/src/exe/rbdock.cxx#4 $)

>  <Rbt.Library>
libRbt.so (2013.1, Build901 2013/11/27)

>  <Rbt.Parameter_File>
/export/apps/rDock/src/rDock_2013.1_src//data/scripts/dock.prm

>  <Rbt.Receptor>
/home/ziqiaoxu/icml18-jtnn/VAEdesign/targets/RdRp-SARS-CoV-2/pocket_docking.prm

>  <SCORE>
-19.6345

>  <SCORE.INTER>
-16.5179

>  <SCORE.INTER.CONST>
1

>  <SCORE.INTER.POLAR>
0

>  <SCORE.INTER.REPUL>
0

>  <SCORE.INTER.ROT>
6

>  <SCORE.INTER.VDW>
-27.9179

>  <SCORE.INTER.norm>
-0.635304

>  <SCORE.INTRA>
-3.11662

>  <SCORE.INTRA.DIHEDRAL>
-2.20201

>  <SCORE.INTRA.DIHEDRAL.0>
8.45736

>  <SCORE.INTRA.POLAR>
-0.54888

>  <SCORE.INTRA.POLAR.0>
0

>  <SCORE.INTRA.REPUL>
0

>  <SCORE.INTRA.REPUL.0>
0

>  <SCORE.INTRA.VDW>
-0.14942

>  <SCORE.INTRA.VDW.0>
-1.93492

>  <SCORE.INTRA.norm>
-0.11987

>  <SCORE.RESTR>
0

>  <SCORE.RESTR.CAVITY>
0

>  <SCORE.RESTR.norm>
0

>  <SCORE.SYSTEM>
0

>  <SCORE.SYSTEM.CONST>
0

>  <SCORE.SYSTEM.DIHEDRAL>
0

>  <SCORE.SYSTEM.norm>
0

>  <SCORE.heavy>
26

>  <SCORE.norm>
-0.755174

$$$$
design_7
 OpenBabel05252019093D

 23 25  0  0  0  0  0  0  0  0999 V2000
   39.6688  -36.3904    2.3980 C   0  0  0  0  0  0  0  0  0  0  0  0
   39.7440  -37.0825    3.7193 C   0  0  0  0  0  0  0  0  0  0  0  0
   39.4519  -38.4153    3.8817 C   0  0  0  0  0  0  0  0  0  0  0  0
   39.5209  -39.0556    5.0979 C   0  0  0  0  0  0  0  0  0  0  0  0
   39.9020  -38.3455    6.2374 C   0  0  0  0  0  0  0  0  0  0  0  0
   39.9905  -38.9792    7.5320 C   0  0  0  0  0  0  0  0  0  0  0  0
   40.7126  -38.5620    8.5765 N   0  0  0  0  0  0  0  0  0  0  0  0
   40.5311  -39.4260    9.5873 N   0  0  0  0  0  0  0  0  0  0  0  0
   39.6932  -40.3957    9.1906 C   0  0  0  0  0  0  0  0  0  0  0  0
   39.0944  -41.8266   10.1072 S   0  0  0  0  0  0  0  0  0  0  0  0
   40.2870  -43.1776   10.0075 C   0  0  0  0  0  0  0  0  0  0  0  0
   40.0165  -44.0936    8.8888 C   0  0  0  0  0  0  0  0  0  0  0  0
   40.6623  -43.9276    7.8161 O   0  0  0  0  0  0  0  0  0  0  0  0
   39.0725  -45.1292    8.9901 N   0  0  0  0  0  0  0  0  0  0  0  0
   38.7594  -46.0613    7.9346 C   0  0  0  0  0  0  0  0  0  0  0  0
   37.7431  -45.5033    6.9703 C   0  0  0  0  0  0  0  0  0  0  0  0
   36.6501  -46.1344    6.4421 C   0  0  0  0  0  0  0  0  0  0  0  0
   35.8792  -45.4391    5.6000 C   0  0  0  0  0  0  0  0  0  0  0  0
   36.2471  -44.1464    5.3323 C   0  0  0  0  0  0  0  0  0  0  0  0
   37.6578  -43.9485    6.2682 S   0  0  0  0  0  0  0  0  0  0  0  0
   39.3673  -40.0998    7.9076 N   0  0  0  0  0  0  0  0  0  0  0  0
   40.1999  -36.9948    6.0813 C   0  0  0  0  0  0  0  0  0  0  0  0
   40.1234  -36.3753    4.8518 C   0  0  0  0  0  0  0  0  0  0  0  0
  1  2  1  0  0  0  0
  2  3  2  0  0  0  0
  3  4  1  0  0  0  0
  4  5  2  0  0  0  0
  5  6  1  0  0  0  0
  5 22  1  0  0  0  0
  6  7  2  0  0  0  0
  7  8  1  0  0  0  0
  8  9  1  0  0  0  0
  9 10  1  0  0  0  0
  9 21  2  0  0  0  0
 10 11  1  0  0  0  0
 11 12  1  0  0  0  0
 12 13  2  0  0  0  0
 12 14  1  0  0  0  0
 14 15  1  0  0  0  0
 15 16  1  0  0  0  0
 16 17  2  0  0  0  0
 17 18  1  0  0  0  0
 18 19  2  0  0  0  0
 19 20  1  0  0  0  0
 20 16  1  0  0  0  0
 21  6  1  0  0  0  0
 22 23  2  0  0  0  0
 23  2  1  0  0  0  0
M  END
>  <CHROM.1>
157.51031089,-84.14940650,-92.29801075,97.38734172,-84.00947756,-135.70712557
39.10856798,-41.48437425,7.10069766,1.08582022,-1.06193663,-0.74910579

>  <Name>
design_7

>  <RI>
0

>  <Rbt.Current_Directory>
/home/ziqiaoxu/icml18-jtnn/VAEdesign

>  <Rbt.Executable>
rbdock ($Id: //depot/dev/client3/rdock/2013.1/src/exe/rbdock.cxx#4 $)

>  <Rbt.Library>
libRbt.so (2013.1, Build901 2013/11/27)

>  <Rbt.Parameter_File>
/export/apps/rDock/src/rDock_2013.1_src//data/scripts/dock.prm

>  <Rbt.Receptor>
/home/ziqiaoxu/icml18-jtnn/VAEdesign/targets/RdRp-SARS-CoV-2/pocket_docking.prm

>  <SCORE>
-17.1959

>  <SCORE.INTER>
-19.9842

>  <SCORE.INTER.CONST>
1

>  <SCORE.INTER.POLAR>
-1.0198

>  <SCORE.INTER.REPUL>
0

>  <SCORE.INTER.ROT>
6

>  <SCORE.INTER.VDW>
-27.9169

>  <SCORE.INTER.norm>
-0.86888

>  <SCORE.INTRA>
2.78828

>  <SCORE.INTRA.DIHEDRAL>
6.9561

>  <SCORE.INTRA.DIHEDRAL.0>
3.32546

>  <SCORE.INTRA.POLAR>
0

>  <SCORE.INTRA.POLAR.0>
0

>  <SCORE.INTRA.REPUL>
0

>  <SCORE.INTRA.REPUL.0>
0

>  <SCORE.INTRA.VDW>
-0.689764

>  <SCORE.INTRA.VDW.0>
-2.25306

>  <SCORE.INTRA.norm>
0.12123

>  <SCORE.RESTR>
0

>  <SCORE.RESTR.CAVITY>
0

>  <SCORE.RESTR.norm>
0

>  <SCORE.SYSTEM>
0

>  <SCORE.SYSTEM.CONST>
0

>  <SCORE.SYSTEM.DIHEDRAL>
0

>  <SCORE.SYSTEM.norm>
0

>  <SCORE.heavy>
23

>  <SCORE.norm>
-0.74765

$$$$
design_5
 OpenBabel05252019093D

 23 25  0  0  0  0  0  0  0  0999 V2000
   39.5966  -48.6322    6.4585 C   0  0  0  0  0  0  0  0  0  0  0  0
   39.9429  -47.5941    7.4504 C   0  0  0  0  0  0  0  0  0  0  0  0
   39.1353  -47.3607    8.5360 C   0  0  0  0  0  0  0  0  0  0  0  0
   39.4509  -46.3852    9.4774 C   0  0  0  0  0  0  0  0  0  0  0  0
   40.5841  -45.6482    9.3170 C   0  0  0  0  0  0  0  0  0  0  0  0
   41.1078  -44.3723   10.4403 S   0  0  0  0  0  0  0  0  0  0  0  0
   39.8879  -43.0854   10.6504 C   0  0  0  0  0  0  0  0  0  0  0  0
   39.8901  -42.2367    9.3976 C   0  0  0  0  0  0  0  0  0  0  0  0
   39.8672  -42.8163    8.3007 O   0  0  0  0  0  0  0  0  0  0  0  0
   39.9172  -40.8420    9.4974 N   0  0  0  0  0  0  0  0  0  0  0  0
   39.9285  -39.9574    8.4129 C   0  0  0  0  0  0  0  0  0  0  0  0
   40.5065  -38.7229    8.3374 C   0  0  0  0  0  0  0  0  0  0  0  0
   40.4970  -37.9084    7.2160 C   0  0  0  0  0  0  0  0  0  0  0  0
   39.8580  -38.3720    6.0889 C   0  0  0  0  0  0  0  0  0  0  0  0
   39.8279  -37.5647    4.9204 N   0  0  0  0  0  0  0  0  0  0  0  0
   40.4064  -36.3810    4.7372 C   0  0  0  0  0  0  0  0  0  0  0  0
   40.1068  -36.0065    3.4930 N   0  0  0  0  0  0  0  0  0  0  0  0
   39.3712  -36.9362    2.9460 N   0  0  0  0  0  0  0  0  0  0  0  0
   39.1982  -37.8902    3.8148 N   0  0  0  0  0  0  0  0  0  0  0  0
   39.2538  -39.6223    6.1151 C   0  0  0  0  0  0  0  0  0  0  0  0
   39.2885  -40.3903    7.2425 C   0  0  0  0  0  0  0  0  0  0  0  0
   41.4065  -45.8815    8.2171 C   0  0  0  0  0  0  0  0  0  0  0  0
   41.0883  -46.8573    7.2779 C   0  0  0  0  0  0  0  0  0  0  0  0
  1  2  1  0  0  0  0
  2  3  2  0  0  0  0
  3  4  1  0  0  0  0
  4  5  2  0  0  0  0
  5  6  1  0  0  0  0
  5 22  1  0  0  0  0
  6  7  1  0  0  0  0
  7  8  1  0  0  0  0
  8  9  2  0  0  0  0
  8 10  1  0  0  0  0
 10 11  1  0  0  0  0
 11 12  2  0  0  0  0
 12 13  1  0  0  0  0
 13 14  2  0  0  0  0
 14 15  1  0  0  0  0
 14 20  1  0  0  0  0
 15 16  1  0  0  0  0
 16 17  2  0  0  0  0
 17 18  1  0  0  0  0
 18 19  2  0  0  0  0
 19 15  1  0  0  0  0
 20 21  2  0  0  0  0
 21 11  1  0  0  0  0
 22 23  2  0  0  0  0
 23  2  1  0  0  0  0
M  END
>  <CHROM.1>
-57.47679909,-74.15118872,47.13128865,-148.89054829,2.98037846,40.05984433
-41.92945651,7.47691834,1.26185048,1.43460291,3.04846308

>  <Name>
design_5

>  <RI>
0

>  <Rbt.Current_Directory>
/home/ziqiaoxu/icml18-jtnn/VAEdesign

>  <Rbt.Executable>
rbdock ($Id: //depot/dev/client3/rdock/2013.1/src/exe/rbdock.cxx#4 $)

>  <Rbt.Library>
libRbt.so (2013.1, Build901 2013/11/27)

>  <Rbt.Parameter_File>
/export/apps/rDock/src/rDock_2013.1_src//data/scripts/dock.prm

>  <Rbt.Receptor>
/home/ziqiaoxu/icml18-jtnn/VAEdesign/targets/RdRp-SARS-CoV-2/pocket_docking.prm

>  <SCORE>
-26.7314

>  <SCORE.INTER>
-20.1115

>  <SCORE.INTER.CONST>
1

>  <SCORE.INTER.POLAR>
-0.766329

>  <SCORE.INTER.REPUL>
0

>  <SCORE.INTER.ROT>
5

>  <SCORE.INTER.VDW>
-27.906

>  <SCORE.INTER.norm>
-0.874412

>  <SCORE.INTRA>
-6.62837

>  <SCORE.INTRA.DIHEDRAL>
-8.9727

>  <SCORE.INTRA.DIHEDRAL.0>
15.9214

>  <SCORE.INTRA.POLAR>
0

>  <SCORE.INTRA.POLAR.0>
0

>  <SCORE.INTRA.REPUL>
0

>  <SCORE.INTRA.REPUL.0>
0

>  <SCORE.INTRA.VDW>
-2.14202

>  <SCORE.INTRA.VDW.0>
1.66825

>  <SCORE.INTRA.norm>
-0.28819

>  <SCORE.RESTR>
0.00842661

>  <SCORE.RESTR.CAVITY>
0.00842661

>  <SCORE.RESTR.norm>
0.000366374

>  <SCORE.SYSTEM>
0

>  <SCORE.SYSTEM.CONST>
0

>  <SCORE.SYSTEM.DIHEDRAL>
0

>  <SCORE.SYSTEM.norm>
0

>  <SCORE.heavy>
23

>  <SCORE.norm>
-1.16224

$$$$
design_0
 OpenBabel05252019093D

 24 25  0  0  0  0  0  0  0  0999 V2000
   41.1581  -36.1558    2.5360 C   0  0  0  0  0  0  0  0  0  0  0  0
   39.7395  -36.3385    2.9527 C   0  0  0  0  0  0  0  0  0  0  0  0
   39.6508  -37.5033    3.9047 C   0  0  0  0  0  0  0  0  0  0  0  0
   39.2143  -38.5756    3.4610 O   0  0  0  0  0  0  0  0  0  0  0  0
   40.0694  -37.2802    5.2155 N   0  0  0  0  0  0  0  0  0  0  0  0
   40.0763  -38.2161    6.2891 C   0  0  0  0  0  0  0  0  0  0  0  0
   40.4356  -37.9536    7.5709 C   0  0  0  0  0  0  0  0  0  0  0  0
   40.4011  -38.9080    8.5573 C   0  0  0  0  0  0  0  0  0  0  0  0
   39.9879  -40.2293    8.2986 C   0  0  0  0  0  0  0  0  0  0  0  0
   39.9833  -41.1644    9.3454 N   0  0  0  0  0  0  0  0  0  0  0  0
   40.5434  -42.4309    9.3720 C   0  0  0  0  0  0  0  0  0  0  0  0
   41.1537  -42.9357    8.4102 O   0  0  0  0  0  0  0  0  0  0  0  0
   40.4419  -43.2399   10.5439 N   0  0  0  0  0  0  0  0  0  0  0  0
   40.9875  -44.5543   10.6596 C   0  0  0  0  0  0  0  0  0  0  0  0
   40.5308  -45.5129    9.6457 C   0  0  0  0  0  0  0  0  0  0  0  0
   41.3559  -45.8547    8.5980 C   0  0  0  0  0  0  0  0  0  0  0  0
   40.8585  -46.7698    7.6731 C   0  0  0  0  0  0  0  0  0  0  0  0
   39.6012  -47.3252    7.7759 C   0  0  0  0  0  0  0  0  0  0  0  0
   39.1127  -48.2714    6.8023 C   0  0  0  0  0  0  0  0  0  0  0  0
   38.7020  -49.0386    6.0245 N   0  0  0  0  0  0  0  0  0  0  0  0
   38.7761  -46.9700    8.8421 C   0  0  0  0  0  0  0  0  0  0  0  0
   39.2704  -46.0612    9.7604 C   0  0  0  0  0  0  0  0  0  0  0  0
   39.6324  -40.4662    6.9996 C   0  0  0  0  0  0  0  0  0  0  0  0
   39.6613  -39.5223    6.0023 C   0  0  0  0  0  0  0  0  0  0  0  0
  1  2  1  0  0  0  0
  2  3  1  0  0  0  0
  3  4  2  0  0  0  0
  3  5  1  0  0  0  0
  5  6  1  0  0  0  0
  6  7  2  0  0  0  0
  7  8  1  0  0  0  0
  8  9  2  0  0  0  0
  9 10  1  0  0  0  0
  9 23  1  0  0  0  0
 10 11  1  0  0  0  0
 11 12  2  0  0  0  0
 11 13  1  0  0  0  0
 13 14  1  0  0  0  0
 14 15  1  0  0  0  0
 15 16  2  0  0  0  0
 16 17  1  0  0  0  0
 17 18  2  0  0  0  0
 18 19  1  0  0  0  0
 18 21  1  0  0  0  0
 19 20  3  0  0  0  0
 21 22  2  0  0  0  0
 22 15  1  0  0  0  0
 23 24  2  0  0  0  0
 24  6  1  0  0  0  0
M  END
>  <CHROM.1>
-103.07512443,-176.92917047,-129.18496851,-56.45072706,103.46325940,40.06577526
-42.03547095,7.26241000,1.47095701,-1.36610726,-0.49986357

>  <Name>
design_0

>  <RI>
0

>  <Rbt.Current_Directory>
/home/ziqiaoxu/icml18-jtnn/VAEdesign

>  <Rbt.Executable>
rbdock ($Id: //depot/dev/client3/rdock/2013.1/src/exe/rbdock.cxx#4 $)

>  <Rbt.Library>
libRbt.so (2013.1, Build901 2013/11/27)

>  <Rbt.Parameter_File>
/export/apps/rDock/src/rDock_2013.1_src//data/scripts/dock.prm

>  <Rbt.Receptor>
/home/ziqiaoxu/icml18-jtnn/VAEdesign/targets/RdRp-SARS-CoV-2/pocket_docking.prm

>  <SCORE>
-19.1124

>  <SCORE.INTER>
-19.4635

>  <SCORE.INTER.CONST>
1

>  <SCORE.INTER.POLAR>
-0.621033

>  <SCORE.INTER.REPUL>
0.0307407

>  <SCORE.INTER.ROT>
5

>  <SCORE.INTER.VDW>
-27.9057

>  <SCORE.INTER.norm>
-0.810981

>  <SCORE.INTRA>
0.343821

>  <SCORE.INTRA.DIHEDRAL>
7.15976

>  <SCORE.INTRA.DIHEDRAL.0>
3.80206

>  <SCORE.INTRA.POLAR>
0

>  <SCORE.INTRA.POLAR.0>
0

>  <SCORE.INTRA.REPUL>
0

>  <SCORE.INTRA.REPUL.0>
0

>  <SCORE.INTRA.VDW>
-3.23606

>  <SCORE.INTRA.VDW.0>
1.80236

>  <SCORE.INTRA.norm>
0.0143259

>  <SCORE.RESTR>
0.00735523

>  <SCORE.RESTR.CAVITY>
0.00735523

>  <SCORE.RESTR.norm>
0.000306468

>  <SCORE.SYSTEM>
0

>  <SCORE.SYSTEM.CONST>
0

>  <SCORE.SYSTEM.DIHEDRAL>
0

>  <SCORE.SYSTEM.norm>
0

>  <SCORE.heavy>
24

>  <SCORE.norm>
-0.796348

$$$$
design_9
 OpenBabel05252019093D

 27 29  0  0  0  0  0  0  0  0999 V2000
   40.4996  -45.6165   10.7531 N   0  0  0  0  0  0  0  0  0  0  0  0
   41.0409  -45.4047    9.4741 C   0  0  0  0  0  0  0  0  0  0  0  0
   41.9004  -44.5244    9.2832 O   0  0  0  0  0  0  0  0  0  0  0  0
   40.5989  -46.2179    8.3530 C   0  0  0  0  0  0  0  0  0  0  0  0
   39.7068  -47.2668    8.5774 C   0  0  0  0  0  0  0  0  0  0  0  0
   39.2845  -48.0392    7.5227 C   0  0  0  0  0  0  0  0  0  0  0  0
   39.7462  -47.7768    6.2253 C   0  0  0  0  0  0  0  0  0  0  0  0
   40.6261  -46.7532    5.9588 C   0  0  0  0  0  0  0  0  0  0  0  0
   41.1418  -46.4453    4.6684 N   0  0  0  0  0  0  0  0  0  0  0  0
   41.9818  -45.3918    4.3239 C   0  0  0  0  0  0  0  0  0  0  0  0
   42.4108  -44.5460    5.1100 O   0  0  0  0  0  0  0  0  0  0  0  0
   42.4071  -45.2619    2.8871 C   0  0  0  0  0  0  0  0  0  0  0  0
   42.8544  -43.8546    2.5804 C   0  0  0  0  0  0  0  0  0  0  0  0
   42.9814  -43.7143    1.1013 C   0  0  0  0  0  0  0  0  0  0  0  0
   43.3700  -42.3496    0.6695 C   0  0  0  0  0  0  0  0  0  0  0  0
   44.4991  -42.1603   -0.0948 C   0  0  0  0  0  0  0  0  0  0  0  0
   44.8890  -40.8848   -0.5161 C   0  0  0  0  0  0  0  0  0  0  0  0
   44.1517  -39.7713   -0.1781 C   0  0  0  0  0  0  0  0  0  0  0  0
   43.0235  -39.9596    0.5855 C   0  0  0  0  0  0  0  0  0  0  0  0
   42.6435  -41.2258    0.9992 C   0  0  0  0  0  0  0  0  0  0  0  0
   43.9483  -44.7296    0.5923 C   0  0  0  0  0  0  0  0  0  0  0  0
   43.6224  -45.7087   -0.3169 C   0  0  0  0  0  0  0  0  0  0  0  0
   44.5399  -46.6300   -0.7651 C   0  0  0  0  0  0  0  0  0  0  0  0
   45.8450  -46.6100   -0.3143 C   0  0  0  0  0  0  0  0  0  0  0  0
   46.1784  -45.6314    0.5970 C   0  0  0  0  0  0  0  0  0  0  0  0
   45.2709  -44.7147    1.0446 C   0  0  0  0  0  0  0  0  0  0  0  0
   41.0208  -46.0018    7.0685 C   0  0  0  0  0  0  0  0  0  0  0  0
  1  2  1  0  0  0  0
  2  3  2  0  0  0  0
  2  4  1  0  0  0  0
  4  5  2  0  0  0  0
  5  6  1  0  0  0  0
  6  7  2  0  0  0  0
  7  8  1  0  0  0  0
  8  9  1  0  0  0  0
  8 27  2  0  0  0  0
  9 10  1  0  0  0  0
 10 11  2  0  0  0  0
 10 12  1  0  0  0  0
 12 13  1  0  0  0  0
 13 14  1  0  0  0  0
 14 15  1  0  0  0  0
 14 21  1  0  0  0  0
 15 16  2  0  0  0  0
 16 17  1  0  0  0  0
 17 18  2  0  0  0  0
 18 19  1  0  0  0  0
 19 20  2  0  0  0  0
 20 15  1  0  0  0  0
 21 22  2  0  0  0  0
 22 23  1  0  0  0  0
 23 24  2  0  0  0  0
 24 25  1  0  0  0  0
 25 26  2  0  0  0  0
 26 21  1  0  0  0  0
 27  4  1  0  0  0  0
M  END
>  <CHROM.1>
-4.47836661,176.80119886,158.77960279,-168.07268283,177.87363331,123.13912555
119.40889666,42.57581628,-44.71940520,3.66313966,2.81336798,-1.14239809,-3.12490249

>  <Name>
design_9

>  <RI>
0

>  <Rbt.Current_Directory>
/home/ziqiaoxu/icml18-jtnn/VAEdesign

>  <Rbt.Executable>
rbdock ($Id: //depot/dev/client3/rdock/2013.1/src/exe/rbdock.cxx#4 $)

>  <Rbt.Library>
libRbt.so (2013.1, Build901 2013/11/27)

>  <Rbt.Parameter_File>
/export/apps/rDock/src/rDock_2013.1_src//data/scripts/dock.prm

>  <Rbt.Receptor>
/home/ziqiaoxu/icml18-jtnn/VAEdesign/targets/RdRp-SARS-CoV-2/pocket_docking.prm

>  <SCORE>
-21.4568

>  <SCORE.INTER>
-22.6964

>  <SCORE.INTER.CONST>
1

>  <SCORE.INTER.POLAR>
-2.1428

>  <SCORE.INTER.REPUL>
0.0125797

>  <SCORE.INTER.ROT>
7

>  <SCORE.INTER.VDW>
-27.8738

>  <SCORE.INTER.norm>
-0.840609

>  <SCORE.INTRA>
1.23962

>  <SCORE.INTRA.DIHEDRAL>
0.710152

>  <SCORE.INTRA.DIHEDRAL.0>
2.98836

>  <SCORE.INTRA.POLAR>
0

>  <SCORE.INTRA.POLAR.0>
0

>  <SCORE.INTRA.REPUL>
0

>  <SCORE.INTRA.REPUL.0>
0

>  <SCORE.INTRA.VDW>
0.884545

>  <SCORE.INTRA.VDW.0>
1.8743

>  <SCORE.INTRA.norm>
0.0459119

>  <SCORE.RESTR>
0

>  <SCORE.RESTR.CAVITY>
0

>  <SCORE.RESTR.norm>
0

>  <SCORE.SYSTEM>
0

>  <SCORE.SYSTEM.CONST>
0

>  <SCORE.SYSTEM.DIHEDRAL>
0

>  <SCORE.SYSTEM.norm>
0

>  <SCORE.heavy>
27

>  <SCORE.norm>
-0.794697

$$$$
design_7
 OpenBabel05252019093D

 24 27  0  0  0  0  0  0  0  0999 V2000
   42.9001  -44.7362    8.3268 C   0  0  0  0  0  0  0  0  0  0  0  0
   41.6498  -45.5300    8.5478 C   0  0  0  0  0  0  0  0  0  0  0  0
   40.9701  -45.4625    9.7449 C   0  0  0  0  0  0  0  0  0  0  0  0
   39.8230  -46.2082    9.9100 C   0  0  0  0  0  0  0  0  0  0  0  0
   39.3879  -47.0103    8.8516 C   0  0  0  0  0  0  0  0  0  0  0  0
   40.0647  -47.0808    7.6521 C   0  0  0  0  0  0  0  0  0  0  0  0
   39.6536  -47.9049    6.5084 C   0  0  0  0  0  0  0  0  0  0  0  0
   38.9257  -47.0858    5.5665 N   0  0  0  0  0  0  0  0  0  0  0  0
   37.4805  -46.9754    5.5629 C   0  0  0  0  0  0  0  0  0  0  0  0
   37.2233  -45.8634    4.5743 C   0  0  1  0  0  0  0  0  0  0  0  0
   37.0412  -44.5430    5.2620 C   0  0  0  0  0  0  0  0  0  0  0  0
   35.8964  -43.9259    5.6052 N   0  0  0  0  0  0  0  0  0  0  0  0
   36.1909  -42.7634    6.2012 C   0  0  0  0  0  0  0  0  0  0  0  0
   35.2309  -41.7680    6.7365 C   0  0  0  0  0  0  0  0  0  0  0  0
   33.9097  -41.6225    6.4062 C   0  0  0  0  0  0  0  0  0  0  0  0
   33.2290  -40.6492    7.0190 C   0  0  0  0  0  0  0  0  0  0  0  0
   33.9090  -39.8777    7.9266 C   0  0  0  0  0  0  0  0  0  0  0  0
   35.4780  -40.5412    7.8911 S   0  0  0  0  0  0  0  0  0  0  0  0
   37.5236  -42.6775    6.2181 N   0  0  0  0  0  0  0  0  0  0  0  0
   38.0042  -43.7447    5.6556 O   0  0  0  0  0  0  0  0  0  0  0  0
   38.4259  -45.8410    3.6603 C   0  0  0  0  0  0  0  0  0  0  0  0
   39.5187  -46.2957    4.5483 C   0  0  0  0  0  0  0  0  0  0  0  0
   40.7587  -46.0182    4.4082 O   0  0  0  0  0  0  0  0  0  0  0  0
   41.2283  -46.3172    7.5003 C   0  0  0  0  0  0  0  0  0  0  0  0
  1  2  1  0  0  0  0
  2  3  2  0  0  0  0
  3  4  1  0  0  0  0
  4  5  2  0  0  0  0
  5  6  1  0  0  0  0
  6  7  1  0  0  0  0
  6 24  2  0  0  0  0
  7  8  1  0  0  0  0
  8  9  1  0  0  0  0
  9 10  1  0  0  0  0
 10 11  1  1  0  0  0
 10 21  1  0  0  0  0
 11 12  2  0  0  0  0
 12 13  1  0  0  0  0
 13 14  1  0  0  0  0
 13 19  2  0  0  0  0
 14 15  2  0  0  0  0
 15 16  1  0  0  0  0
 16 17  2  0  0  0  0
 17 18  1  0  0  0  0
 18 14  1  0  0  0  0
 19 20  1  0  0  0  0
 20 11  1  0  0  0  0
 21 22  1  0  0  0  0
 22 23  2  0  0  0  0
 22  8  1  0  0  0  0
 24  2  1  0  0  0  0
M  END
>  <CHROM.1>
97.60076073,-94.16880059,-96.76619528,-20.71365748,37.99961421,-44.39881176
6.71026302,-0.40636468,-0.64484610,0.93507952

>  <Name>
design_7

>  <RI>
0

>  <Rbt.Current_Directory>
/home/ziqiaoxu/icml18-jtnn/VAEdesign

>  <Rbt.Executable>
rbdock ($Id: //depot/dev/client3/rdock/2013.1/src/exe/rbdock.cxx#4 $)

>  <Rbt.Library>
libRbt.so (2013.1, Build901 2013/11/27)

>  <Rbt.Parameter_File>
/export/apps/rDock/src/rDock_2013.1_src//data/scripts/dock.prm

>  <Rbt.Receptor>
/home/ziqiaoxu/icml18-jtnn/VAEdesign/targets/RdRp-SARS-CoV-2/pocket_docking.prm

>  <SCORE>
-18.4203

>  <SCORE.INTER>
-18.4213

>  <SCORE.INTER.CONST>
1

>  <SCORE.INTER.POLAR>
0

>  <SCORE.INTER.REPUL>
0

>  <SCORE.INTER.ROT>
4

>  <SCORE.INTER.VDW>
-27.8213

>  <SCORE.INTER.norm>
-0.767553

>  <SCORE.INTRA>
-0.0213093

>  <SCORE.INTRA.DIHEDRAL>
1.46

>  <SCORE.INTRA.DIHEDRAL.0>
4.15466

>  <SCORE.INTRA.POLAR>
0

>  <SCORE.INTRA.POLAR.0>
0

>  <SCORE.INTRA.REPUL>
0

>  <SCORE.INTRA.REPUL.0>
0

>  <SCORE.INTRA.VDW>
-0.751312

>  <SCORE.INTRA.VDW.0>
-2.10133

>  <SCORE.INTRA.norm>
-0.000887889

>  <SCORE.RESTR>
0.0222842

>  <SCORE.RESTR.CAVITY>
0.0222842

>  <SCORE.RESTR.norm>
0.000928507

>  <SCORE.SYSTEM>
0

>  <SCORE.SYSTEM.CONST>
0

>  <SCORE.SYSTEM.DIHEDRAL>
0

>  <SCORE.SYSTEM.norm>
0

>  <SCORE.heavy>
24

>  <SCORE.norm>
-0.767512

$$$$
design_9
 OpenBabel05252019093D

 22 24  0  0  0  0  0  0  0  0999 V2000
   39.2675  -48.8832    6.4709 C   0  0  0  0  0  0  0  0  0  0  0  0
   39.8330  -47.8033    7.3691 C   0  0  0  0  0  0  0  0  0  0  0  0
   40.9692  -47.1469    7.2374 N   0  0  0  0  0  0  0  0  0  0  0  0
   41.3092  -46.2406    8.1066 C   0  0  0  0  0  0  0  0  0  0  0  0
   42.5915  -45.4887    7.9698 C   0  0  0  0  0  0  0  0  0  0  0  0
   42.8811  -44.5458    8.8983 C   0  0  0  0  0  0  0  0  0  0  0  0
   44.0737  -43.8288    8.7902 C   0  0  0  0  0  0  0  0  0  0  0  0
   44.9375  -44.0981    7.7324 C   0  0  0  0  0  0  0  0  0  0  0  0
   44.6244  -45.0625    6.7972 C   0  0  0  0  0  0  0  0  0  0  0  0
   45.5271  -45.3489    5.6828 C   0  0  0  0  0  0  0  0  0  0  0  0
   44.8157  -45.4001    4.3848 N   0  0  0  0  0  0  0  0  0  0  0  0
   45.5261  -45.8426    3.2719 C   0  0  0  0  0  0  0  0  0  0  0  0
   46.7574  -46.1706    3.5003 O   0  0  0  0  0  0  0  0  0  0  0  0
   45.0405  -45.9744    1.9011 C   0  0  0  0  0  0  0  0  0  0  0  0
   43.3965  -45.6129    1.4258 S   0  0  0  0  0  0  0  0  0  0  0  0
   43.4982  -45.9659   -0.2253 C   0  0  0  0  0  0  0  0  0  0  0  0
   44.7952  -46.3539   -0.3723 C   0  0  0  0  0  0  0  0  0  0  0  0
   45.5850  -46.3578    0.7207 C   0  0  0  0  0  0  0  0  0  0  0  0
   47.0479  -46.7863    0.6450 C   0  0  0  0  0  0  0  0  0  0  0  0
   43.4611  -45.7458    6.9226 C   0  0  0  0  0  0  0  0  0  0  0  0
   40.4381  -46.0144    9.1411 C   0  0  0  0  0  0  0  0  0  0  0  0
   39.1811  -47.1263    8.7929 S   0  0  0  0  0  0  0  0  0  0  0  0
  1  2  1  0  0  0  0
  2  3  2  0  0  0  0
  3  4  1  0  0  0  0
  4  5  1  0  0  0  0
  4 21  2  0  0  0  0
  5  6  2  0  0  0  0
  6  7  1  0  0  0  0
  7  8  2  0  0  0  0
  8  9  1  0  0  0  0
  9 10  1  0  0  0  0
  9 20  2  0  0  0  0
 10 11  1  0  0  0  0
 11 12  1  0  0  0  0
 12 13  2  0  0  0  0
 12 14  1  0  0  0  0
 14 15  1  0  0  0  0
 15 16  1  0  0  0  0
 16 17  2  0  0  0  0
 17 18  1  0  0  0  0
 18 19  1  0  0  0  0
 18 14  2  0  0  0  0
 20  5  1  0  0  0  0
 21 22  1  0  0  0  0
 22  2  1  0  0  0  0
M  END
>  <CHROM.1>
179.19393850,-132.16513478,-171.44211933,-1.50225518,43.21532783,-46.05343956
5.18758935,2.20276901,0.44431927,1.32800241

>  <Name>
design_9

>  <RI>
0

>  <Rbt.Current_Directory>
/home/ziqiaoxu/icml18-jtnn/VAEdesign

>  <Rbt.Executable>
rbdock ($Id: //depot/dev/client3/rdock/2013.1/src/exe/rbdock.cxx#4 $)

>  <Rbt.Library>
libRbt.so (2013.1, Build901 2013/11/27)

>  <Rbt.Parameter_File>
/export/apps/rDock/src/rDock_2013.1_src//data/scripts/dock.prm

>  <Rbt.Receptor>
/home/ziqiaoxu/icml18-jtnn/VAEdesign/targets/RdRp-SARS-CoV-2/pocket_docking.prm

>  <SCORE>
-18.3681

>  <SCORE.INTER>
-18.4163

>  <SCORE.INTER.CONST>
1

>  <SCORE.INTER.POLAR>
0

>  <SCORE.INTER.REPUL>
0

>  <SCORE.INTER.ROT>
4

>  <SCORE.INTER.VDW>
-27.8163

>  <SCORE.INTER.norm>
-0.837106

>  <SCORE.INTRA>
0.0482274

>  <SCORE.INTRA.DIHEDRAL>
0.00335304

>  <SCORE.INTRA.DIHEDRAL.0>
1.92496

>  <SCORE.INTRA.POLAR>
0

>  <SCORE.INTRA.POLAR.0>
0

>  <SCORE.INTRA.REPUL>
0

>  <SCORE.INTRA.REPUL.0>
0

>  <SCORE.INTRA.VDW>
0.0465509

>  <SCORE.INTRA.VDW.0>
-0.579965

>  <SCORE.INTRA.norm>
0.00219216

>  <SCORE.RESTR>
0

>  <SCORE.RESTR.CAVITY>
0

>  <SCORE.RESTR.norm>
0

>  <SCORE.SYSTEM>
0

>  <SCORE.SYSTEM.CONST>
0

>  <SCORE.SYSTEM.DIHEDRAL>
0

>  <SCORE.SYSTEM.norm>
0

>  <SCORE.heavy>
22

>  <SCORE.norm>
-0.834913

$$$$
design_7
 OpenBabel05252019093D

 25 27  0  0  0  0  0  0  0  0999 V2000
   40.7181  -39.0526    1.5639 N   0  0  0  0  0  0  0  0  0  0  0  0
   40.2469  -37.9856    2.3702 C   0  0  0  0  0  0  0  0  0  0  0  0
   39.8925  -36.8933    1.8625 O   0  0  0  0  0  0  0  0  0  0  0  0
   40.1875  -38.2014    3.8187 C   0  0  0  0  0  0  0  0  0  0  0  0
   40.4678  -39.4201    4.3823 C   0  0  0  0  0  0  0  0  0  0  0  0
   40.4218  -39.6604    5.7332 C   0  0  0  0  0  0  0  0  0  0  0  0
   40.0774  -38.6289    6.5688 C   0  0  0  0  0  0  0  0  0  0  0  0
   40.0238  -38.8701    8.0505 C   0  0  0  0  0  0  0  0  0  0  0  0
   40.6218  -40.1560    8.2822 N   0  0  0  0  0  0  0  0  0  0  0  0
   39.8883  -41.1268    8.9787 C   0  0  0  0  0  0  0  0  0  0  0  0
   38.7302  -40.9101    9.4041 O   0  0  0  0  0  0  0  0  0  0  0  0
   40.4819  -42.3878    9.2037 N   0  0  0  0  0  0  0  0  0  0  0  0
   39.7274  -43.3907    9.9173 C   0  0  0  0  0  0  0  0  0  0  0  0
   40.6183  -44.5490   10.3583 C   0  0  0  0  0  0  0  0  0  0  0  0
   40.5627  -45.5610    9.2967 C   0  0  0  0  0  0  0  0  0  0  0  0
   41.4659  -45.5552    8.2611 C   0  0  0  0  0  0  0  0  0  0  0  0
   41.4338  -46.4926    7.2554 C   0  0  0  0  0  0  0  0  0  0  0  0
   40.4769  -47.4720    7.2701 C   0  0  0  0  0  0  0  0  0  0  0  0
   39.5456  -47.5064    8.3062 C   0  0  0  0  0  0  0  0  0  0  0  0
   39.6014  -46.5370    9.3201 C   0  0  0  0  0  0  0  0  0  0  0  0
   38.7224  -48.5916    8.0489 O   0  0  0  0  0  0  0  0  0  0  0  0
   38.8961  -49.0598    6.7255 C   0  0  0  0  0  0  0  0  0  0  0  0
   40.1803  -48.5488    6.4148 O   0  0  0  0  0  0  0  0  0  0  0  0
   39.7902  -37.3958    6.0396 C   0  0  0  0  0  0  0  0  0  0  0  0
   39.8433  -37.1811    4.6875 C   0  0  0  0  0  0  0  0  0  0  0  0
  1  2  1  0  0  0  0
  2  3  2  0  0  0  0
  2  4  1  0  0  0  0
  4  5  2  0  0  0  0
  5  6  1  0  0  0  0
  6  7  2  0  0  0  0
  7  8  1  0  0  0  0
  7 24  1  0  0  0  0
  8  9  1  0  0  0  0
  9 10  1  0  0  0  0
 10 11  2  0  0  0  0
 10 12  1  0  0  0  0
 12 13  1  0  0  0  0
 13 14  1  0  0  0  0
 14 15  1  0  0  0  0
 15 16  2  0  0  0  0
 16 17  1  0  0  0  0
 17 18  2  0  0  0  0
 18 19  1  0  0  0  0
 19 20  2  0  0  0  0
 19 21  1  0  0  0  0
 20 15  1  0  0  0  0
 21 22  1  0  0  0  0
 22 23  1  0  0  0  0
 23 18  1  0  0  0  0
 24 25  2  0  0  0  0
 25  4  1  0  0  0  0
M  END
>  <CHROM.1>
-5.31306883,10.90188269,-124.98420489,-166.44875220,-92.23143237,90.81570189
40.09266204,-42.47039405,6.86704899,-0.83290961,-1.53760738,-2.81573384

>  <Name>
design_7

>  <RI>
0

>  <Rbt.Current_Directory>
/home/ziqiaoxu/icml18-jtnn/VAEdesign

>  <Rbt.Executable>
rbdock ($Id: //depot/dev/client3/rdock/2013.1/src/exe/rbdock.cxx#4 $)

>  <Rbt.Library>
libRbt.so (2013.1, Build901 2013/11/27)

>  <Rbt.Parameter_File>
/export/apps/rDock/src/rDock_2013.1_src//data/scripts/dock.prm

>  <Rbt.Receptor>
/home/ziqiaoxu/icml18-jtnn/VAEdesign/targets/RdRp-SARS-CoV-2/pocket_docking.prm

>  <SCORE>
-18.7665

>  <SCORE.INTER>
-21.2178

>  <SCORE.INTER.CONST>
1

>  <SCORE.INTER.POLAR>
-1.41409

>  <SCORE.INTER.REPUL>
0

>  <SCORE.INTER.ROT>
6

>  <SCORE.INTER.VDW>
-27.8099

>  <SCORE.INTER.norm>
-0.848713

>  <SCORE.INTRA>
2.45129

>  <SCORE.INTRA.DIHEDRAL>
3.17286

>  <SCORE.INTRA.DIHEDRAL.0>
3.85582

>  <SCORE.INTRA.POLAR>
0

>  <SCORE.INTRA.POLAR.0>
0

>  <SCORE.INTRA.REPUL>
0

>  <SCORE.INTRA.REPUL.0>
0

>  <SCORE.INTRA.VDW>
0.864863

>  <SCORE.INTRA.VDW.0>
-0.943493

>  <SCORE.INTRA.norm>
0.0980517

>  <SCORE.RESTR>
0

>  <SCORE.RESTR.CAVITY>
0

>  <SCORE.RESTR.norm>
0

>  <SCORE.SYSTEM>
0

>  <SCORE.SYSTEM.CONST>
0

>  <SCORE.SYSTEM.DIHEDRAL>
0

>  <SCORE.SYSTEM.norm>
0

>  <SCORE.heavy>
25

>  <SCORE.norm>
-0.750661

$$$$
design_11
 OpenBabel05252019093D

 27 29  0  0  0  0  0  0  0  0999 V2000
   34.7269  -40.4510    6.2648 C   0  0  0  0  0  0  0  0  0  0  0  0
   34.9434  -41.8138    5.9059 N   0  0  0  0  0  0  0  0  0  0  0  0
   36.2056  -42.4485    6.1208 C   0  0  0  0  0  0  0  0  0  0  0  0
   37.1150  -41.7745    6.6364 O   0  0  0  0  0  0  0  0  0  0  0  0
   36.3513  -43.8584    5.7191 C   0  0  0  0  0  0  0  0  0  0  0  0
   37.3077  -44.5935    6.5337 N   0  0  0  0  0  0  0  0  0  0  0  0
   38.6461  -44.3027    5.9690 C   0  0  0  0  0  0  0  0  0  0  0  0
   39.5648  -45.4540    6.1543 C   0  0  0  0  0  0  0  0  0  0  0  0
   39.2236  -46.1682    7.3564 N   0  0  0  0  0  0  0  0  0  0  0  0
   40.1363  -46.2660    8.4084 C   0  0  0  0  0  0  0  0  0  0  0  0
   39.7776  -46.9238    9.4478 O   0  0  0  0  0  0  0  0  0  0  0  0
   41.4635  -45.6715    8.4063 C   0  0  0  0  0  0  0  0  0  0  0  0
   42.4242  -45.8908    7.4816 C   0  0  0  0  0  0  0  0  0  0  0  0
   43.5099  -45.1372    7.8724 C   0  0  0  0  0  0  0  0  0  0  0  0
   44.7841  -45.0949    7.1359 C   0  0  0  0  0  0  0  0  0  0  0  0
   43.2239  -44.4668    9.0135 N   0  0  0  0  0  0  0  0  0  0  0  0
   44.0403  -43.5918    9.7916 C   0  0  0  0  0  0  0  0  0  0  0  0
   45.3164  -44.0536   10.2646 C   0  0  0  0  0  0  0  0  0  0  0  0
   46.4839  -43.5350    9.7554 C   0  0  0  0  0  0  0  0  0  0  0  0
   47.7509  -43.9263   10.1545 C   0  0  0  0  0  0  0  0  0  0  0  0
   47.8390  -44.8968   11.1227 C   0  0  0  0  0  0  0  0  0  0  0  0
   46.7008  -45.4374   11.6543 C   0  0  0  0  0  0  0  0  0  0  0  0
   45.4473  -45.0200   11.2289 C   0  0  0  0  0  0  0  0  0  0  0  0
   41.9657  -44.7947    9.3438 C   0  0  0  0  0  0  0  0  0  0  0  0
   41.1385  -44.3539   10.5269 C   0  0  0  0  0  0  0  0  0  0  0  0
   37.9141  -46.7616    7.4261 C   0  0  0  0  0  0  0  0  0  0  0  0
   37.0687  -46.0300    6.3923 C   0  0  0  0  0  0  0  0  0  0  0  0
  1  2  1  0  0  0  0
  2  3  1  0  0  0  0
  3  4  2  0  0  0  0
  3  5  1  0  0  0  0
  5  6  1  0  0  0  0
  6  7  1  0  0  0  0
  7  8  1  0  0  0  0
  8  9  1  0  0  0  0
  9 10  1  0  0  0  0
  9 26  1  0  0  0  0
 10 11  2  0  0  0  0
 10 12  1  0  0  0  0
 12 13  1  0  0  0  0
 13 14  2  0  0  0  0
 14 15  1  0  0  0  0
 14 16  1  0  0  0  0
 16 17  1  0  0  0  0
 16 24  1  0  0  0  0
 17 18  1  0  0  0  0
 18 19  2  0  0  0  0
 19 20  1  0  0  0  0
 20 21  2  0  0  0  0
 21 22  1  0  0  0  0
 22 23  2  0  0  0  0
 23 18  1  0  0  0  0
 24 25  1  0  0  0  0
 24 12  2  0  0  0  0
 26 27  1  0  0  0  0
 27  6  1  0  0  0  0
M  END
>  <CHROM.1>
-150.12381289,-83.10040026,-56.40027213,-54.91430248,110.66299518,41.00480973
-44.51681386,8.17538441,-3.01108205,0.38947386,3.13369162

>  <Name>
design_11

>  <RI>
0

>  <Rbt.Current_Directory>
/home/ziqiaoxu/icml18-jtnn/VAEdesign

>  <Rbt.Executable>
rbdock ($Id: //depot/dev/client3/rdock/2013.1/src/exe/rbdock.cxx#4 $)

>  <Rbt.Library>
libRbt.so (2013.1, Build901 2013/11/27)

>  <Rbt.Parameter_File>
/export/apps/rDock/src/rDock_2013.1_src//data/scripts/dock.prm

>  <Rbt.Receptor>
/home/ziqiaoxu/icml18-jtnn/VAEdesign/targets/RdRp-SARS-CoV-2/pocket_docking.prm

>  <SCORE>
-21.3226

>  <SCORE.INTER>
-20.4504

>  <SCORE.INTER.CONST>
1

>  <SCORE.INTER.POLAR>
-0.898694

>  <SCORE.INTER.REPUL>
0

>  <SCORE.INTER.ROT>
5

>  <SCORE.INTER.VDW>
-27.7949

>  <SCORE.INTER.norm>
-0.757423

>  <SCORE.INTRA>
-0.872179

>  <SCORE.INTRA.DIHEDRAL>
-2.99132

>  <SCORE.INTRA.DIHEDRAL.0>
15.9567

>  <SCORE.INTRA.POLAR>
0

>  <SCORE.INTRA.POLAR.0>
0

>  <SCORE.INTRA.REPUL>
0

>  <SCORE.INTRA.REPUL.0>
0

>  <SCORE.INTRA.VDW>
0.623483

>  <SCORE.INTRA.VDW.0>
-3.29874

>  <SCORE.INTRA.norm>
-0.0323029

>  <SCORE.RESTR>
0

>  <SCORE.RESTR.CAVITY>
0

>  <SCORE.RESTR.norm>
0

>  <SCORE.SYSTEM>
0

>  <SCORE.SYSTEM.CONST>
0

>  <SCORE.SYSTEM.DIHEDRAL>
0

>  <SCORE.SYSTEM.norm>
0

>  <SCORE.heavy>
27

>  <SCORE.norm>
-0.789726

$$$$
design_2
 OpenBabel05252019093D

 23 24  0  0  0  0  0  0  0  0999 V2000
   39.7421  -36.5746    2.8744 C   0  0  0  0  0  0  0  0  0  0  0  0
   39.7230  -37.2972    4.1814 C   0  0  0  0  0  0  0  0  0  0  0  0
   39.4109  -38.6333    4.2446 C   0  0  0  0  0  0  0  0  0  0  0  0
   39.3926  -39.2894    5.4260 C   0  0  0  0  0  0  0  0  0  0  0  0
   39.6844  -38.6773    6.6670 C   0  0  0  0  0  0  0  0  0  0  0  0
   39.6549  -39.4538    7.8346 N   0  0  0  0  0  0  0  0  0  0  0  0
   39.0518  -40.7038    7.9603 C   0  0  0  0  0  0  0  0  0  0  0  0
   38.4715  -41.2723    7.0300 O   0  0  0  0  0  0  0  0  0  0  0  0
   39.0998  -41.4163    9.2958 C   0  0  0  0  0  0  0  0  0  0  0  0
   39.6109  -42.8128    9.0482 C   0  0  0  0  0  0  0  0  0  0  0  0
   39.6774  -43.5374   10.2957 N   0  0  0  0  0  0  0  0  0  0  0  0
   40.6924  -44.8956   10.2383 S   0  0  0  0  0  0  0  0  0  0  0  0
   42.0820  -44.4630    9.8697 O   0  0  0  0  0  0  0  0  0  0  0  0
   40.7550  -45.5108   11.6011 O   0  0  0  0  0  0  0  0  0  0  0  0
   40.1422  -46.1231    9.1296 C   0  0  0  0  0  0  0  0  0  0  0  0
   38.9733  -46.8065    9.2659 C   0  0  0  0  0  0  0  0  0  0  0  0
   38.6254  -47.7532    8.3442 C   0  0  0  0  0  0  0  0  0  0  0  0
   39.4091  -48.0672    7.2532 C   0  0  0  0  0  0  0  0  0  0  0  0
   38.9445  -49.1007    6.3209 C   0  0  0  0  0  0  0  0  0  0  0  0
   40.5938  -47.3684    7.1231 C   0  0  0  0  0  0  0  0  0  0  0  0
   40.9516  -46.4112    8.0498 C   0  0  0  0  0  0  0  0  0  0  0  0
   39.9923  -37.3507    6.5833 C   0  0  0  0  0  0  0  0  0  0  0  0
   40.0138  -36.6593    5.3588 C   0  0  0  0  0  0  0  0  0  0  0  0
  1  2  1  0  0  0  0
  2  3  2  0  0  0  0
  3  4  1  0  0  0  0
  4  5  2  0  0  0  0
  5  6  1  0  0  0  0
  5 22  1  0  0  0  0
  6  7  1  0  0  0  0
  7  8  2  0  0  0  0
  7  9  1  0  0  0  0
  9 10  1  0  0  0  0
 10 11  1  0  0  0  0
 11 12  1  0  0  0  0
 12 13  2  0  0  0  0
 12 14  2  0  0  0  0
 12 15  1  0  0  0  0
 15 16  2  0  0  0  0
 16 17  1  0  0  0  0
 17 18  2  0  0  0  0
 18 19  1  0  0  0  0
 18 20  1  0  0  0  0
 20 21  2  0  0  0  0
 21 15  1  0  0  0  0
 22 23  2  0  0  0  0
 23  2  1  0  0  0  0
M  END
>  <CHROM.1>
-16.75476721,-128.86177733,179.93633477,-160.83021276,58.91022842,-63.61744870
39.83244684,-42.76960822,7.77404444,1.76451134,-1.36179078,-0.20138076

>  <Name>
design_2

>  <RI>
0

>  <Rbt.Current_Directory>
/home/ziqiaoxu/icml18-jtnn/VAEdesign

>  <Rbt.Executable>
rbdock ($Id: //depot/dev/client3/rdock/2013.1/src/exe/rbdock.cxx#4 $)

>  <Rbt.Library>
libRbt.so (2013.1, Build901 2013/11/27)

>  <Rbt.Parameter_File>
/export/apps/rDock/src/rDock_2013.1_src//data/scripts/dock.prm

>  <Rbt.Receptor>
/home/ziqiaoxu/icml18-jtnn/VAEdesign/targets/RdRp-SARS-CoV-2/pocket_docking.prm

>  <SCORE>
-19.3291

>  <SCORE.INTER>
-18.8534

>  <SCORE.INTER.CONST>
1

>  <SCORE.INTER.POLAR>
-0.725698

>  <SCORE.INTER.REPUL>
0.00166175

>  <SCORE.INTER.ROT>
6

>  <SCORE.INTER.VDW>
-27.7943

>  <SCORE.INTER.norm>
-0.819713

>  <SCORE.INTRA>
-0.599768

>  <SCORE.INTRA.DIHEDRAL>
1.79811

>  <SCORE.INTRA.DIHEDRAL.0>
3.46942

>  <SCORE.INTRA.POLAR>
0

>  <SCORE.INTRA.POLAR.0>
0

>  <SCORE.INTRA.REPUL>
0

>  <SCORE.INTRA.REPUL.0>
0

>  <SCORE.INTRA.VDW>
-1.49882

>  <SCORE.INTRA.VDW.0>
0.768921

>  <SCORE.INTRA.norm>
-0.0260769

>  <SCORE.RESTR>
0.124058

>  <SCORE.RESTR.CAVITY>
0.124058

>  <SCORE.RESTR.norm>
0.00539385

>  <SCORE.SYSTEM>
0

>  <SCORE.SYSTEM.CONST>
0

>  <SCORE.SYSTEM.DIHEDRAL>
0

>  <SCORE.SYSTEM.norm>
0

>  <SCORE.heavy>
23

>  <SCORE.norm>
-0.840396

$$$$
design_5
 OpenBabel05252019093D

 24 25  0  0  0  0  0  0  0  0999 V2000
   39.6569  -36.4017    3.0175 C   0  0  0  0  0  0  0  0  0  0  0  0
   39.6428  -37.5808    3.9683 C   0  0  0  0  0  0  0  0  0  0  0  0
   39.2693  -38.6539    3.4477 O   0  0  0  0  0  0  0  0  0  0  0  0
   40.0326  -37.3762    5.2920 N   0  0  0  0  0  0  0  0  0  0  0  0
   40.0833  -38.3360    6.3145 C   0  0  0  0  0  0  0  0  0  0  0  0
   40.7131  -37.9909    7.5213 C   0  0  0  0  0  0  0  0  0  0  0  0
   40.8122  -38.8490    8.5903 C   0  0  0  0  0  0  0  0  0  0  0  0
   40.2797  -40.1158    8.5089 C   0  0  0  0  0  0  0  0  0  0  0  0
   39.6592  -40.4699    7.3334 C   0  0  0  0  0  0  0  0  0  0  0  0
   39.0876  -41.8338    7.2801 C   0  0  0  0  0  0  0  0  0  0  0  0
   39.5528  -42.7063    8.0674 O   0  0  0  0  0  0  0  0  0  0  0  0
   38.0630  -42.1321    6.3776 N   0  0  0  0  0  0  0  0  0  0  0  0
   37.3931  -43.3691    6.1749 C   0  0  0  0  0  0  0  0  0  0  0  0
   36.2194  -43.4858    5.4884 C   0  0  0  0  0  0  0  0  0  0  0  0
   35.6469  -44.7617    5.3271 C   0  0  0  0  0  0  0  0  0  0  0  0
   36.2370  -45.8874    5.8419 C   0  0  0  0  0  0  0  0  0  0  0  0
   37.4131  -45.7797    6.5317 C   0  0  0  0  0  0  0  0  0  0  0  0
   38.0956  -47.0005    7.1096 C   0  0  0  0  0  0  0  0  0  0  0  0
   38.3344  -46.7591    8.4969 N   0  0  0  0  0  0  0  0  0  0  0  0
   39.6571  -46.6779    8.9988 C   0  0  0  0  0  0  0  0  0  0  0  0
   39.8435  -46.4366   10.3811 N   0  0  0  0  0  0  0  0  0  0  0  0
   40.6377  -46.8199    8.2177 O   0  0  0  0  0  0  0  0  0  0  0  0
   37.9748  -44.5390    6.6912 C   0  0  0  0  0  0  0  0  0  0  0  0
   39.5552  -39.5995    6.2417 C   0  0  0  0  0  0  0  0  0  0  0  0
  1  2  1  0  0  0  0
  2  3  2  0  0  0  0
  2  4  1  0  0  0  0
  4  5  1  0  0  0  0
  5  6  2  0  0  0  0
  6  7  1  0  0  0  0
  7  8  2  0  0  0  0
  8  9  1  0  0  0  0
  9 10  1  0  0  0  0
  9 24  2  0  0  0  0
 10 11  2  0  0  0  0
 10 12  1  0  0  0  0
 12 13  1  0  0  0  0
 13 14  2  0  0  0  0
 14 15  1  0  0  0  0
 15 16  2  0  0  0  0
 16 17  1  0  0  0  0
 17 18  1  0  0  0  0
 17 23  2  0  0  0  0
 18 19  1  0  0  0  0
 19 20  1  0  0  0  0
 20 21  1  0  0  0  0
 20 22  2  0  0  0  0
 23 13  1  0  0  0  0
 24  5  1  0  0  0  0
M  END
>  <CHROM.1>
169.46458254,-22.76838136,164.92186505,-126.72990460,-115.48278175,38.94062571
-42.25836895,6.73091959,1.31505895,-0.84030533,-0.49266268

>  <Name>
design_5

>  <RI>
0

>  <Rbt.Current_Directory>
/home/ziqiaoxu/icml18-jtnn/VAEdesign

>  <Rbt.Executable>
rbdock ($Id: //depot/dev/client3/rdock/2013.1/src/exe/rbdock.cxx#4 $)

>  <Rbt.Library>
libRbt.so (2013.1, Build901 2013/11/27)

>  <Rbt.Parameter_File>
/export/apps/rDock/src/rDock_2013.1_src//data/scripts/dock.prm

>  <Rbt.Receptor>
/home/ziqiaoxu/icml18-jtnn/VAEdesign/targets/RdRp-SARS-CoV-2/pocket_docking.prm

>  <SCORE>
-22.8539

>  <SCORE.INTER>
-23.3019

>  <SCORE.INTER.CONST>
1

>  <SCORE.INTER.POLAR>
-1.74382

>  <SCORE.INTER.REPUL>
0

>  <SCORE.INTER.ROT>
5

>  <SCORE.INTER.VDW>
-27.7729

>  <SCORE.INTER.norm>
-0.970913

>  <SCORE.INTRA>
0.447991

>  <SCORE.INTRA.DIHEDRAL>
0.0261762

>  <SCORE.INTRA.DIHEDRAL.0>
5.17876

>  <SCORE.INTRA.POLAR>
0

>  <SCORE.INTRA.POLAR.0>
0

>  <SCORE.INTRA.REPUL>
0

>  <SCORE.INTRA.REPUL.0>
0

>  <SCORE.INTRA.VDW>
0.434903

>  <SCORE.INTRA.VDW.0>
-1.43186

>  <SCORE.INTRA.norm>
0.0186663

>  <SCORE.RESTR>
0

>  <SCORE.RESTR.CAVITY>
0

>  <SCORE.RESTR.norm>
0

>  <SCORE.SYSTEM>
0

>  <SCORE.SYSTEM.CONST>
0

>  <SCORE.SYSTEM.DIHEDRAL>
0

>  <SCORE.SYSTEM.norm>
0

>  <SCORE.heavy>
24

>  <SCORE.norm>
-0.952247

$$$$
design_5
 OpenBabel05252019093D

 25 27  0  0  0  0  0  0  0  0999 V2000
   41.6990  -44.7355    8.3362 O   0  0  0  0  0  0  0  0  0  0  0  0
   40.6455  -45.2800    8.8115 C   0  0  0  0  0  0  0  0  0  0  0  0
   40.0325  -44.7546    9.9703 N   0  0  0  0  0  0  0  0  0  0  0  0
   40.6293  -43.5932   10.5942 C   0  0  0  0  0  0  0  0  0  0  0  0
   39.6883  -42.4249   10.6160 C   0  0  0  0  0  0  0  0  0  0  0  0
   39.7254  -41.7617    9.3371 N   0  0  0  0  0  0  0  0  0  0  0  0
   40.1558  -40.4403    9.1116 C   0  0  0  0  0  0  0  0  0  0  0  0
   40.5621  -39.7128   10.0583 O   0  0  0  0  0  0  0  0  0  0  0  0
   40.1622  -39.8276    7.7842 C   0  0  0  0  0  0  0  0  0  0  0  0
   40.0873  -40.6269    6.6379 C   0  0  0  0  0  0  0  0  0  0  0  0
   40.0938  -40.0512    5.3788 C   0  0  0  0  0  0  0  0  0  0  0  0
   40.1738  -38.6885    5.2311 C   0  0  0  0  0  0  0  0  0  0  0  0
   40.1813  -38.0607    3.8726 C   0  0  0  0  0  0  0  0  0  0  0  0
   40.0313  -36.7018    3.7285 C   0  0  0  0  0  0  0  0  0  0  0  0
   40.1113  -36.5229    2.0312 S   0  0  0  0  0  0  0  0  0  0  0  0
   40.3276  -38.1635    1.6138 C   0  0  0  0  0  0  0  0  0  0  0  0
   40.3272  -38.7596    2.7904 N   0  0  0  0  0  0  0  0  0  0  0  0
   40.2462  -37.9277    6.3676 C   0  0  0  0  0  0  0  0  0  0  0  0
   40.2406  -38.4805    7.6042 C   0  0  0  0  0  0  0  0  0  0  0  0
   40.0826  -46.4545    8.1403 C   0  0  0  0  0  0  0  0  0  0  0  0
   40.5910  -46.8406    6.9008 C   0  0  0  0  0  0  0  0  0  0  0  0
   40.1183  -47.9279    6.2082 C   0  0  0  0  0  0  0  0  0  0  0  0
   39.0972  -48.6562    6.7796 C   0  0  0  0  0  0  0  0  0  0  0  0
   38.5700  -48.3042    8.0035 C   0  0  0  0  0  0  0  0  0  0  0  0
   39.0636  -47.1917    8.6974 C   0  0  0  0  0  0  0  0  0  0  0  0
  1  2  2  0  0  0  0
  2  3  1  0  0  0  0
  2 20  1  0  0  0  0
  3  4  1  0  0  0  0
  4  5  1  0  0  0  0
  5  6  1  0  0  0  0
  6  7  1  0  0  0  0
  7  8  2  0  0  0  0
  7  9  1  0  0  0  0
  9 10  2  0  0  0  0
 10 11  1  0  0  0  0
 11 12  2  0  0  0  0
 12 13  1  0  0  0  0
 12 18  1  0  0  0  0
 13 14  2  0  0  0  0
 14 15  1  0  0  0  0
 15 16  1  0  0  0  0
 16 17  2  0  0  0  0
 17 13  1  0  0  0  0
 18 19  2  0  0  0  0
 19  9  1  0  0  0  0
 20 21  2  0  0  0  0
 21 22  1  0  0  0  0
 22 23  2  0  0  0  0
 23 24  1  0  0  0  0
 24 25  2  0  0  0  0
 25 20  1  0  0  0  0
M  END
>  <CHROM.1>
119.09196777,-81.77314494,-116.71357083,-17.42126369,168.81940775,-8.91662370
40.11616514,-41.80014943,6.78862310,-2.00635320,-1.50012718,-0.93519483

>  <Name>
design_5

>  <RI>
0

>  <Rbt.Current_Directory>
/home/ziqiaoxu/icml18-jtnn/VAEdesign

>  <Rbt.Executable>
rbdock ($Id: //depot/dev/client3/rdock/2013.1/src/exe/rbdock.cxx#4 $)

>  <Rbt.Library>
libRbt.so (2013.1, Build901 2013/11/27)

>  <Rbt.Parameter_File>
/export/apps/rDock/src/rDock_2013.1_src//data/scripts/dock.prm

>  <Rbt.Receptor>
/home/ziqiaoxu/icml18-jtnn/VAEdesign/targets/RdRp-SARS-CoV-2/pocket_docking.prm

>  <SCORE>
-19.6067

>  <SCORE.INTER>
-20.4901

>  <SCORE.INTER.CONST>
1

>  <SCORE.INTER.POLAR>
-1.22121

>  <SCORE.INTER.REPUL>
0

>  <SCORE.INTER.ROT>
6

>  <SCORE.INTER.VDW>
-27.738

>  <SCORE.INTER.norm>
-0.819603

>  <SCORE.INTRA>
0.883357

>  <SCORE.INTRA.DIHEDRAL>
3.5271

>  <SCORE.INTRA.DIHEDRAL.0>
2.41417

>  <SCORE.INTRA.POLAR>
0

>  <SCORE.INTRA.POLAR.0>
0

>  <SCORE.INTRA.REPUL>
0

>  <SCORE.INTRA.REPUL.0>
0

>  <SCORE.INTRA.VDW>
-0.880195

>  <SCORE.INTRA.VDW.0>
-0.225417

>  <SCORE.INTRA.norm>
0.0353343

>  <SCORE.RESTR>
0

>  <SCORE.RESTR.CAVITY>
0

>  <SCORE.RESTR.norm>
0

>  <SCORE.SYSTEM>
0

>  <SCORE.SYSTEM.CONST>
0

>  <SCORE.SYSTEM.DIHEDRAL>
0

>  <SCORE.SYSTEM.norm>
0

>  <SCORE.heavy>
25

>  <SCORE.norm>
-0.784268

$$$$
design_11
 OpenBabel05252019093D

 24 27  0  0  0  0  0  0  0  0999 V2000
   41.2823  -44.4543   10.9806 C   0  0  0  0  0  0  0  0  0  0  0  0
   40.9299  -45.3295    9.8268 C   0  0  0  0  0  0  0  0  0  0  0  0
   39.8172  -46.1127    9.7525 N   0  0  0  0  0  0  0  0  0  0  0  0
   39.7746  -46.7829    8.5966 C   0  0  0  0  0  0  0  0  0  0  0  0
   38.8466  -47.6927    8.0730 C   0  0  0  0  0  0  0  0  0  0  0  0
   38.9953  -48.2756    6.8450 C   0  0  0  0  0  0  0  0  0  0  0  0
   40.1110  -47.9326    6.1225 C   0  0  0  0  0  0  0  0  0  0  0  0
   41.0543  -47.0218    6.6299 C   0  0  0  0  0  0  0  0  0  0  0  0
   40.8916  -46.4435    7.8664 C   0  0  0  0  0  0  0  0  0  0  0  0
   41.6131  -45.5246    8.6550 C   0  0  0  0  0  0  0  0  0  0  0  0
   42.8523  -44.9483    8.2040 C   0  0  0  0  0  0  0  0  0  0  0  0
   43.3981  -43.9861    8.8720 O   0  0  0  0  0  0  0  0  0  0  0  0
   43.5537  -45.3461    7.0626 N   0  0  0  0  0  0  0  0  0  0  0  0
   44.8177  -44.6611    6.7212 C   0  0  0  0  0  0  0  0  0  0  0  0
   45.2646  -45.2221    5.4435 C   0  0  0  0  0  0  0  0  0  0  0  0
   46.3922  -45.8362    5.1033 N   0  0  0  0  0  0  0  0  0  0  0  0
   46.3395  -46.1623    3.8490 O   0  0  0  0  0  0  0  0  0  0  0  0
   45.2097  -45.7912    3.3156 C   0  0  0  0  0  0  0  0  0  0  0  0
   44.7470  -45.9724    1.9046 C   0  0  0  0  0  0  0  0  0  0  0  0
   45.5162  -46.4520    0.8988 C   0  0  0  0  0  0  0  0  0  0  0  0
   44.9518  -46.5577   -0.3310 C   0  0  0  0  0  0  0  0  0  0  0  0
   43.3663  -45.9941   -0.0861 S   0  0  0  0  0  0  0  0  0  0  0  0
   43.4577  -45.6364    1.5782 C   0  0  0  0  0  0  0  0  0  0  0  0
   44.5240  -45.1983    4.3081 N   0  0  0  0  0  0  0  0  0  0  0  0
  1  2  1  0  0  0  0
  2  3  1  0  0  0  0
  3  4  1  0  0  0  0
  4  5  2  0  0  0  0
  5  6  1  0  0  0  0
  6  7  2  0  0  0  0
  7  8  1  0  0  0  0
  8  9  2  0  0  0  0
  9 10  1  0  0  0  0
  9  4  1  0  0  0  0
 10 11  1  0  0  0  0
 10  2  2  0  0  0  0
 11 12  2  0  0  0  0
 11 13  1  0  0  0  0
 13 14  1  0  0  0  0
 14 15  1  0  0  0  0
 15 16  2  0  0  0  0
 16 17  1  0  0  0  0
 17 18  1  0  0  0  0
 18 19  1  0  0  0  0
 18 24  2  0  0  0  0
 19 20  1  0  0  0  0
 20 21  2  0  0  0  0
 21 22  1  0  0  0  0
 22 23  1  0  0  0  0
 23 19  2  0  0  0  0
 24 15  1  0  0  0  0
M  END
>  <CHROM.1>
-8.80035067,-176.12728228,-122.12141191,-7.05440591,42.88751510,-45.94688029
5.55299549,-2.10100766,-0.41475991,-1.80894752

>  <Name>
design_11

>  <RI>
0

>  <Rbt.Current_Directory>
/home/ziqiaoxu/icml18-jtnn/VAEdesign

>  <Rbt.Executable>
rbdock ($Id: //depot/dev/client3/rdock/2013.1/src/exe/rbdock.cxx#4 $)

>  <Rbt.Library>
libRbt.so (2013.1, Build901 2013/11/27)

>  <Rbt.Parameter_File>
/export/apps/rDock/src/rDock_2013.1_src//data/scripts/dock.prm

>  <Rbt.Receptor>
/home/ziqiaoxu/icml18-jtnn/VAEdesign/targets/RdRp-SARS-CoV-2/pocket_docking.prm

>  <SCORE>
-21.2041

>  <SCORE.INTER>
-21.7713

>  <SCORE.INTER.CONST>
1

>  <SCORE.INTER.POLAR>
-1.0198

>  <SCORE.INTER.REPUL>
0.00376297

>  <SCORE.INTER.ROT>
4

>  <SCORE.INTER.VDW>
-27.7228

>  <SCORE.INTER.norm>
-0.907138

>  <SCORE.INTRA>
0.567233

>  <SCORE.INTRA.DIHEDRAL>
0.440306

>  <SCORE.INTRA.DIHEDRAL.0>
2.53311

>  <SCORE.INTRA.POLAR>
0

>  <SCORE.INTRA.POLAR.0>
0

>  <SCORE.INTRA.REPUL>
0

>  <SCORE.INTRA.REPUL.0>
0

>  <SCORE.INTRA.VDW>
0.347079

>  <SCORE.INTRA.VDW.0>
-1.36986

>  <SCORE.INTRA.norm>
0.0236347

>  <SCORE.RESTR>
0

>  <SCORE.RESTR.CAVITY>
0

>  <SCORE.RESTR.norm>
0

>  <SCORE.SYSTEM>
0

>  <SCORE.SYSTEM.CONST>
0

>  <SCORE.SYSTEM.DIHEDRAL>
0

>  <SCORE.SYSTEM.norm>
0

>  <SCORE.heavy>
24

>  <SCORE.norm>
-0.883503

$$$$
design_10
 OpenBabel05252019093D

 24 27  0  0  0  0  0  0  0  0999 V2000
   40.1069  -42.6664    8.0669 O   0  0  0  0  0  0  0  0  0  0  0  0
   39.9032  -42.1050    9.1702 C   0  0  0  0  0  0  0  0  0  0  0  0
   39.5570  -40.7357    9.2039 N   0  0  0  0  0  0  0  0  0  0  0  0
   39.4437  -39.9969    7.9653 C   0  0  0  0  0  0  0  0  0  0  0  0
   40.5670  -38.9799    7.8400 C   0  0  0  0  0  0  0  0  0  0  0  0
   40.4021  -38.3352    6.4847 C   0  0  0  0  0  0  0  0  0  0  0  0
   40.6682  -38.8469    5.2965 N   0  0  0  0  0  0  0  0  0  0  0  0
   40.4583  -38.1351    4.2197 C   0  0  0  0  0  0  0  0  0  0  0  0
   40.6958  -38.5524    2.8966 C   0  0  0  0  0  0  0  0  0  0  0  0
   40.4349  -37.7133    1.8523 C   0  0  0  0  0  0  0  0  0  0  0  0
   39.9382  -36.4433    2.0119 C   0  0  0  0  0  0  0  0  0  0  0  0
   39.7032  -36.0259    3.2959 C   0  0  0  0  0  0  0  0  0  0  0  0
   39.9633  -36.8706    4.3884 C   0  0  0  0  0  0  0  0  0  0  0  0
   39.8272  -36.7755    6.0883 S   0  0  0  0  0  0  0  0  0  0  0  0
   40.0335  -42.8896   10.3511 N   0  0  0  0  0  0  0  0  0  0  0  0
   40.3815  -44.2905   10.3600 C   0  0  0  0  0  0  0  0  0  0  0  0
   41.5865  -44.4842    9.4866 C   0  0  0  0  0  0  0  0  0  0  0  0
   41.6598  -45.2929    8.3739 C   0  0  0  0  0  0  0  0  0  0  0  0
   42.9258  -45.2185    7.8248 N   0  0  0  0  0  0  0  0  0  0  0  0
   43.5586  -45.7485    6.7951 C   0  0  0  0  0  0  0  0  0  0  0  0
   44.8644  -45.3912    6.6017 C   0  0  0  0  0  0  0  0  0  0  0  0
   45.1363  -44.3152    7.8940 S   0  0  0  0  0  0  0  0  0  0  0  0
   43.5863  -44.3765    8.6066 C   0  0  0  0  0  0  0  0  0  0  0  0
   42.7918  -43.9139    9.6284 N   0  0  0  0  0  0  0  0  0  0  0  0
  1  2  2  0  0  0  0
  2  3  1  0  0  0  0
  2 15  1  0  0  0  0
  3  4  1  0  0  0  0
  4  5  1  0  0  0  0
  5  6  1  0  0  0  0
  6  7  2  0  0  0  0
  7  8  1  0  0  0  0
  8  9  2  0  0  0  0
  9 10  1  0  0  0  0
 10 11  2  0  0  0  0
 11 12  1  0  0  0  0
 12 13  2  0  0  0  0
 13 14  1  0  0  0  0
 13  8  1  0  0  0  0
 14  6  1  0  0  0  0
 15 16  1  0  0  0  0
 16 17  1  0  0  0  0
 17 18  2  0  0  0  0
 18 19  1  0  0  0  0
 19 20  1  0  0  0  0
 20 21  2  0  0  0  0
 21 22  1  0  0  0  0
 22 23  1  0  0  0  0
 23 24  2  0  0  0  0
 23 19  1  0  0  0  0
 24 17  1  0  0  0  0
M  END
>  <CHROM.1>
-110.91965139,176.49416197,-73.89276594,48.97387505,-120.73030657,41.29100256
-41.14048080,6.94235499,1.11527201,-0.77269073,2.27874038

>  <Name>
design_10

>  <RI>
0

>  <Rbt.Current_Directory>
/home/ziqiaoxu/icml18-jtnn/VAEdesign

>  <Rbt.Executable>
rbdock ($Id: //depot/dev/client3/rdock/2013.1/src/exe/rbdock.cxx#4 $)

>  <Rbt.Library>
libRbt.so (2013.1, Build901 2013/11/27)

>  <Rbt.Parameter_File>
/export/apps/rDock/src/rDock_2013.1_src//data/scripts/dock.prm

>  <Rbt.Receptor>
/home/ziqiaoxu/icml18-jtnn/VAEdesign/targets/RdRp-SARS-CoV-2/pocket_docking.prm

>  <SCORE>
-21.8411

>  <SCORE.INTER>
-20.5992

>  <SCORE.INTER.CONST>
1

>  <SCORE.INTER.POLAR>
-0.965696

>  <SCORE.INTER.REPUL>
0

>  <SCORE.INTER.ROT>
5

>  <SCORE.INTER.VDW>
-27.7159

>  <SCORE.INTER.norm>
-0.858301

>  <SCORE.INTRA>
-1.24184

>  <SCORE.INTRA.DIHEDRAL>
-2.08393

>  <SCORE.INTRA.DIHEDRAL.0>
6.11661

>  <SCORE.INTRA.POLAR>
0

>  <SCORE.INTRA.POLAR.0>
0

>  <SCORE.INTRA.REPUL>
0

>  <SCORE.INTRA.REPUL.0>
0

>  <SCORE.INTRA.VDW>
-0.199877

>  <SCORE.INTRA.VDW.0>
-1.19318

>  <SCORE.INTRA.norm>
-0.0517434

>  <SCORE.RESTR>
0

>  <SCORE.RESTR.CAVITY>
0

>  <SCORE.RESTR.norm>
0

>  <SCORE.SYSTEM>
0

>  <SCORE.SYSTEM.CONST>
0

>  <SCORE.SYSTEM.DIHEDRAL>
0

>  <SCORE.SYSTEM.norm>
0

>  <SCORE.heavy>
24

>  <SCORE.norm>
-0.910044

$$$$
design_4
 OpenBabel05252019093D

 27 28  0  0  0  0  0  0  0  0999 V2000
   41.5705  -39.7016    4.1295 C   0  0  0  0  0  0  0  0  0  0  0  0
   40.4076  -38.8937    3.6000 C   0  0  0  0  0  0  0  0  0  0  0  0
   40.3706  -37.5486    4.0917 N   0  0  0  0  0  0  0  0  0  0  0  0
   39.6379  -37.2176    5.2842 C   0  0  0  0  0  0  0  0  0  0  0  0
   39.5540  -38.2628    6.2969 C   0  0  0  0  0  0  0  0  0  0  0  0
   40.4566  -38.1860    7.3628 C   0  0  0  0  0  0  0  0  0  0  0  0
   40.4753  -39.1113    8.3650 C   0  0  0  0  0  0  0  0  0  0  0  0
   39.5911  -40.1920    8.3845 C   0  0  0  0  0  0  0  0  0  0  0  0
   39.6503  -41.1378    9.4157 N   0  0  0  0  0  0  0  0  0  0  0  0
   40.4044  -42.3071    9.4139 C   0  0  0  0  0  0  0  0  0  0  0  0
   41.1280  -42.6717    8.4652 O   0  0  0  0  0  0  0  0  0  0  0  0
   40.3467  -43.1550   10.5849 N   0  0  0  0  0  0  0  0  0  0  0  0
   41.1004  -44.3672   10.6333 C   0  0  0  0  0  0  0  0  0  0  0  0
   40.8663  -45.2400    9.4727 C   0  0  0  0  0  0  0  0  0  0  0  0
   41.8038  -45.4162    8.4914 C   0  0  0  0  0  0  0  0  0  0  0  0
   41.5058  -46.2630    7.4303 C   0  0  0  0  0  0  0  0  0  0  0  0
   40.2927  -46.9127    7.3653 C   0  0  0  0  0  0  0  0  0  0  0  0
   40.0118  -47.8027    6.2263 C   0  0  0  0  0  0  0  0  0  0  0  0
   38.8524  -48.6478    6.2435 N   0  0  0  0  0  0  0  0  0  0  0  0
   40.7849  -47.8223    5.2424 O   0  0  0  0  0  0  0  0  0  0  0  0
   39.3335  -46.7512    8.3406 C   0  0  0  0  0  0  0  0  0  0  0  0
   39.6487  -45.9059    9.3863 C   0  0  0  0  0  0  0  0  0  0  0  0
   38.7062  -40.2693    7.3405 C   0  0  0  0  0  0  0  0  0  0  0  0
   38.6911  -39.3168    6.3145 C   0  0  0  0  0  0  0  0  0  0  0  0
   41.0375  -36.5234    3.3995 C   0  0  0  0  0  0  0  0  0  0  0  0
   41.7622  -36.8583    2.1455 C   0  0  0  0  0  0  0  0  0  0  0  0
   41.0232  -35.3231    3.8354 O   0  0  0  0  0  0  0  0  0  0  0  0
  1  2  1  0  0  0  0
  2  3  1  0  0  0  0
  3  4  1  0  0  0  0
  3 25  1  0  0  0  0
  4  5  1  0  0  0  0
  5  6  2  0  0  0  0
  6  7  1  0  0  0  0
  7  8  2  0  0  0  0
  8  9  1  0  0  0  0
  8 23  1  0  0  0  0
  9 10  1  0  0  0  0
 10 11  2  0  0  0  0
 10 12  1  0  0  0  0
 12 13  1  0  0  0  0
 13 14  1  0  0  0  0
 14 15  2  0  0  0  0
 15 16  1  0  0  0  0
 16 17  2  0  0  0  0
 17 18  1  0  0  0  0
 17 21  1  0  0  0  0
 18 19  1  0  0  0  0
 18 20  2  0  0  0  0
 21 22  2  0  0  0  0
 22 14  1  0  0  0  0
 23 24  2  0  0  0  0
 24  5  1  0  0  0  0
 25 26  1  0  0  0  0
 25 27  2  0  0  0  0
M  END
>  <CHROM.1>
-91.32432150,31.10074120,98.35433784,-90.72423298,-52.60736055,107.73743774
170.12271514,40.34488530,-41.90052583,6.88323667,-1.22697370,-1.48103648
3.12568091

>  <Name>
design_4

>  <RI>
0

>  <Rbt.Current_Directory>
/home/ziqiaoxu/icml18-jtnn/VAEdesign

>  <Rbt.Executable>
rbdock ($Id: //depot/dev/client3/rdock/2013.1/src/exe/rbdock.cxx#4 $)

>  <Rbt.Library>
libRbt.so (2013.1, Build901 2013/11/27)

>  <Rbt.Parameter_File>
/export/apps/rDock/src/rDock_2013.1_src//data/scripts/dock.prm

>  <Rbt.Receptor>
/home/ziqiaoxu/icml18-jtnn/VAEdesign/targets/RdRp-SARS-CoV-2/pocket_docking.prm

>  <SCORE>
-14.8007

>  <SCORE.INTER>
-20.2909

>  <SCORE.INTER.CONST>
1

>  <SCORE.INTER.POLAR>
-1.50281

>  <SCORE.INTER.REPUL>
0.0261313

>  <SCORE.INTER.ROT>
7

>  <SCORE.INTER.VDW>
-27.712

>  <SCORE.INTER.norm>
-0.751514

>  <SCORE.INTRA>
5.47707

>  <SCORE.INTRA.DIHEDRAL>
11.7481

>  <SCORE.INTRA.DIHEDRAL.0>
6.46426

>  <SCORE.INTRA.POLAR>
0

>  <SCORE.INTRA.POLAR.0>
0

>  <SCORE.INTRA.REPUL>
0

>  <SCORE.INTRA.REPUL.0>
0

>  <SCORE.INTRA.VDW>
-0.396961

>  <SCORE.INTRA.VDW.0>
-1.22606

>  <SCORE.INTRA.norm>
0.202854

>  <SCORE.RESTR>
0.0131145

>  <SCORE.RESTR.CAVITY>
0.0131145

>  <SCORE.RESTR.norm>
0.000485723

>  <SCORE.SYSTEM>
0

>  <SCORE.SYSTEM.CONST>
0

>  <SCORE.SYSTEM.DIHEDRAL>
0

>  <SCORE.SYSTEM.norm>
0

>  <SCORE.heavy>
27

>  <SCORE.norm>
-0.548174

$$$$
design_0
 OpenBabel05252019093D

 25 27  0  0  0  0  0  0  0  0999 V2000
   46.8912  -46.1670    3.3561 O   0  0  0  0  0  0  0  0  0  0  0  0
   45.6935  -45.8348    3.2867 C   0  0  0  0  0  0  0  0  0  0  0  0
   45.0691  -45.3572    4.4911 N   0  0  0  0  0  0  0  0  0  0  0  0
   45.7832  -45.2668    5.7099 C   0  0  0  0  0  0  0  0  0  0  0  0
   45.3291  -44.3197    6.7273 C   0  0  0  0  0  0  0  0  0  0  0  0
   44.1848  -44.6535    7.4718 N   0  0  0  0  0  0  0  0  0  0  0  0
   43.6539  -44.2390    8.6858 C   0  0  0  0  0  0  0  0  0  0  0  0
   44.1484  -43.4020    9.4455 O   0  0  0  0  0  0  0  0  0  0  0  0
   42.3632  -44.8599    9.1197 C   0  0  0  0  0  0  0  0  0  0  0  0
   41.8095  -44.4321   10.2868 C   0  0  0  0  0  0  0  0  0  0  0  0
   40.6056  -45.0268   10.6693 C   0  0  0  0  0  0  0  0  0  0  0  0
   40.0594  -45.9992    9.8504 C   0  0  0  0  0  0  0  0  0  0  0  0
   40.6516  -46.4068    8.6727 C   0  0  0  0  0  0  0  0  0  0  0  0
   40.0689  -47.4192    7.8342 N   0  0  0  0  0  0  0  0  0  0  0  0
   38.9628  -48.1233    8.1179 C   0  0  0  0  0  0  0  0  0  0  0  0
   38.7049  -49.0017    7.0841 C   0  0  0  0  0  0  0  0  0  0  0  0
   39.7128  -48.7948    6.1566 C   0  0  0  0  0  0  0  0  0  0  0  0
   40.4915  -47.8455    6.6555 N   0  0  0  0  0  0  0  0  0  0  0  0
   41.8115  -45.8085    8.3398 N   0  0  0  0  0  0  0  0  0  0  0  0
   44.9906  -45.9370    2.0354 C   0  0  0  0  0  0  0  0  0  0  0  0
   45.6405  -46.3915    0.9018 C   0  0  0  0  0  0  0  0  0  0  0  0
   45.0016  -46.5033   -0.3107 C   0  0  0  0  0  0  0  0  0  0  0  0
   43.6667  -46.1654   -0.4634 C   0  0  0  0  0  0  0  0  0  0  0  0
   43.0199  -45.7135    0.6636 C   0  0  0  0  0  0  0  0  0  0  0  0
   43.6620  -45.5981    1.8945 C   0  0  0  0  0  0  0  0  0  0  0  0
  1  2  2  0  0  0  0
  2  3  1  0  0  0  0
  2 20  1  0  0  0  0
  3  4  1  0  0  0  0
  4  5  1  0  0  0  0
  5  6  1  0  0  0  0
  6  7  1  0  0  0  0
  7  8  2  0  0  0  0
  7  9  1  0  0  0  0
  9 10  2  0  0  0  0
 10 11  1  0  0  0  0
 11 12  2  0  0  0  0
 12 13  1  0  0  0  0
 13 14  1  0  0  0  0
 13 19  2  0  0  0  0
 14 15  1  0  0  0  0
 15 16  2  0  0  0  0
 16 17  1  0  0  0  0
 17 18  2  0  0  0  0
 18 14  1  0  0  0  0
 19  9  1  0  0  0  0
 20 21  2  0  0  0  0
 21 22  1  0  0  0  0
 22 23  2  0  0  0  0
 23 24  1  0  0  0  0
 24 25  2  0  0  0  0
 25 20  1  0  0  0  0
M  END
>  <CHROM.1>
155.63142110,75.32889530,160.34603513,-177.94067607,-4.04429521,-0.59330131
42.93078257,-45.94945440,5.88641738,-0.97821213,0.54208141,1.24933998

>  <Name>
design_0

>  <RI>
0

>  <Rbt.Current_Directory>
/home/ziqiaoxu/icml18-jtnn/VAEdesign

>  <Rbt.Executable>
rbdock ($Id: //depot/dev/client3/rdock/2013.1/src/exe/rbdock.cxx#4 $)

>  <Rbt.Library>
libRbt.so (2013.1, Build901 2013/11/27)

>  <Rbt.Parameter_File>
/export/apps/rDock/src/rDock_2013.1_src//data/scripts/dock.prm

>  <Rbt.Receptor>
/home/ziqiaoxu/icml18-jtnn/VAEdesign/targets/RdRp-SARS-CoV-2/pocket_docking.prm

>  <SCORE>
-21.9073

>  <SCORE.INTER>
-17.0989

>  <SCORE.INTER.CONST>
1

>  <SCORE.INTER.POLAR>
-0.231684

>  <SCORE.INTER.REPUL>
0

>  <SCORE.INTER.ROT>
6

>  <SCORE.INTER.VDW>
-27.7112

>  <SCORE.INTER.norm>
-0.683955

>  <SCORE.INTRA>
-4.80838

>  <SCORE.INTRA.DIHEDRAL>
-12.0486

>  <SCORE.INTRA.DIHEDRAL.0>
15.4636

>  <SCORE.INTRA.POLAR>
0.000327648

>  <SCORE.INTRA.POLAR.0>
-0.0778239

>  <SCORE.INTRA.REPUL>
0

>  <SCORE.INTRA.REPUL.0>
0

>  <SCORE.INTRA.VDW>
1.21479

>  <SCORE.INTRA.VDW.0>
-1.68403

>  <SCORE.INTRA.norm>
-0.192335

>  <SCORE.RESTR>
0

>  <SCORE.RESTR.CAVITY>
0

>  <SCORE.RESTR.norm>
0

>  <SCORE.SYSTEM>
0

>  <SCORE.SYSTEM.CONST>
0

>  <SCORE.SYSTEM.DIHEDRAL>
0

>  <SCORE.SYSTEM.norm>
0

>  <SCORE.heavy>
25

>  <SCORE.norm>
-0.87629

$$$$
design_12
 OpenBabel05252019093D

 24 26  0  0  0  0  0  0  0  0999 V2000
   39.5517  -48.6290    6.5822 C   0  0  0  0  0  0  0  0  0  0  0  0
   39.8961  -47.5751    7.5716 C   0  0  0  0  0  0  0  0  0  0  0  0
   39.0526  -47.2864    8.6324 C   0  0  0  0  0  0  0  0  0  0  0  0
   39.3300  -46.3192    9.5729 C   0  0  0  0  0  0  0  0  0  0  0  0
   40.4907  -45.5992    9.4699 C   0  0  0  0  0  0  0  0  0  0  0  0
   40.9148  -44.3177   10.6695 S   0  0  0  0  0  0  0  0  0  0  0  0
   39.6637  -43.0127   10.5498 C   0  0  0  0  0  0  0  0  0  0  0  0
   39.9073  -42.3347    9.2142 C   0  0  0  0  0  0  0  0  0  0  0  0
   40.1318  -43.0915    8.2681 O   0  0  0  0  0  0  0  0  0  0  0  0
   39.8738  -40.9405    9.0913 N   0  0  0  0  0  0  0  0  0  0  0  0
   40.0696  -40.1736    7.9422 C   0  0  0  0  0  0  0  0  0  0  0  0
   40.2506  -38.7958    8.0979 C   0  0  0  0  0  0  0  0  0  0  0  0
   40.4311  -37.9583    7.0279 C   0  0  0  0  0  0  0  0  0  0  0  0
   40.4363  -38.4745    5.7676 C   0  0  0  0  0  0  0  0  0  0  0  0
   40.6446  -37.6979    4.6063 N   0  0  0  0  0  0  0  0  0  0  0  0
   40.8346  -38.1974    3.3053 C   0  0  0  0  0  0  0  0  0  0  0  0
   40.8258  -39.4175    3.0716 O   0  0  0  0  0  0  0  0  0  0  0  0
   41.0541  -37.2706    2.1598 C   0  0  0  0  0  0  0  0  0  0  0  0
   39.9276  -36.2950    1.9530 C   0  0  0  0  0  0  0  0  0  0  0  0
   41.3161  -35.8322    2.4018 C   0  0  0  0  0  0  0  0  0  0  0  0
   40.2551  -39.8622    5.5767 C   0  0  0  0  0  0  0  0  0  0  0  0
   40.0749  -40.6788    6.6833 C   0  0  0  0  0  0  0  0  0  0  0  0
   41.3398  -45.8769    8.4178 C   0  0  0  0  0  0  0  0  0  0  0  0
   41.0546  -46.8369    7.4924 C   0  0  0  0  0  0  0  0  0  0  0  0
  1  2  1  0  0  0  0
  2  3  2  0  0  0  0
  3  4  1  0  0  0  0
  4  5  2  0  0  0  0
  5  6  1  0  0  0  0
  5 23  1  0  0  0  0
  6  7  1  0  0  0  0
  7  8  1  0  0  0  0
  8  9  2  0  0  0  0
  8 10  1  0  0  0  0
 10 11  1  0  0  0  0
 11 12  2  0  0  0  0
 12 13  1  0  0  0  0
 13 14  2  0  0  0  0
 14 15  1  0  0  0  0
 14 21  1  0  0  0  0
 15 16  1  0  0  0  0
 16 17  2  0  0  0  0
 16 18  1  0  0  0  0
 18 19  1  0  0  0  0
 19 20  1  0  0  0  0
 20 18  1  0  0  0  0
 21 22  2  0  0  0  0
 22 11  1  0  0  0  0
 23 24  2  0  0  0  0
 24  2  1  0  0  0  0
M  END
>  <CHROM.1>
-63.62993909,-70.11157174,43.22469056,-167.67434308,171.09415018,-58.86562516
40.33740715,-41.87516712,7.01099058,-2.93416604,1.51952782,0.81486193

>  <Name>
design_12

>  <RI>
0

>  <Rbt.Current_Directory>
/home/ziqiaoxu/icml18-jtnn/VAEdesign

>  <Rbt.Executable>
rbdock ($Id: //depot/dev/client3/rdock/2013.1/src/exe/rbdock.cxx#4 $)

>  <Rbt.Library>
libRbt.so (2013.1, Build901 2013/11/27)

>  <Rbt.Parameter_File>
/export/apps/rDock/src/rDock_2013.1_src//data/scripts/dock.prm

>  <Rbt.Receptor>
/home/ziqiaoxu/icml18-jtnn/VAEdesign/targets/RdRp-SARS-CoV-2/pocket_docking.prm

>  <SCORE>
-18.1565

>  <SCORE.INTER>
-19.3105

>  <SCORE.INTER.CONST>
1

>  <SCORE.INTER.POLAR>
-0.886087

>  <SCORE.INTER.REPUL>
0.00121884

>  <SCORE.INTER.ROT>
6

>  <SCORE.INTER.VDW>
-27.7039

>  <SCORE.INTER.norm>
-0.804605

>  <SCORE.INTRA>
1.1491

>  <SCORE.INTRA.DIHEDRAL>
-1.75196

>  <SCORE.INTRA.DIHEDRAL.0>
8.22178

>  <SCORE.INTRA.POLAR>
0

>  <SCORE.INTRA.POLAR.0>
0

>  <SCORE.INTRA.REPUL>
0

>  <SCORE.INTRA.REPUL.0>
0

>  <SCORE.INTRA.VDW>
2.02508

>  <SCORE.INTRA.VDW.0>
-1.90333

>  <SCORE.INTRA.norm>
0.0478792

>  <SCORE.RESTR>
0.0049424

>  <SCORE.RESTR.CAVITY>
0.0049424

>  <SCORE.RESTR.norm>
0.000205934

>  <SCORE.SYSTEM>
0

>  <SCORE.SYSTEM.CONST>
0

>  <SCORE.SYSTEM.DIHEDRAL>
0

>  <SCORE.SYSTEM.norm>
0

>  <SCORE.heavy>
24

>  <SCORE.norm>
-0.75652

$$$$
design_6
 OpenBabel05252019093D

 24 26  0  0  0  0  0  0  0  0999 V2000
   44.1353  -46.0712    0.3325 C   0  0  0  0  0  0  0  0  0  0  0  0
   44.5956  -45.5457    1.5790 O   0  0  0  0  0  0  0  0  0  0  0  0
   45.7334  -46.1243    2.1227 C   0  0  0  0  0  0  0  0  0  0  0  0
   46.6780  -46.7658    1.3894 C   0  0  0  0  0  0  0  0  0  0  0  0
   47.8183  -47.3490    1.9098 C   0  0  0  0  0  0  0  0  0  0  0  0
   47.9546  -47.2404    3.2761 C   0  0  0  0  0  0  0  0  0  0  0  0
   47.0199  -46.5952    4.0737 C   0  0  0  0  0  0  0  0  0  0  0  0
   45.8975  -46.0285    3.5151 C   0  0  0  0  0  0  0  0  0  0  0  0
   44.8549  -45.2877    4.2611 C   0  0  0  0  0  0  0  0  0  0  0  0
   45.0926  -45.3585    5.6710 N   0  0  0  0  0  0  0  0  0  0  0  0
   44.3947  -44.6014    6.6439 C   0  0  0  0  0  0  0  0  0  0  0  0
   43.5070  -43.7920    6.2844 O   0  0  0  0  0  0  0  0  0  0  0  0
   44.6747  -44.7350    8.0265 N   0  0  0  0  0  0  0  0  0  0  0  0
   43.9478  -43.9460    9.0316 C   0  0  0  0  0  0  0  0  0  0  0  0
   42.6238  -44.6441    9.3190 C   0  0  0  0  0  0  0  0  0  0  0  0
   41.9413  -44.4013   10.4857 C   0  0  0  0  0  0  0  0  0  0  0  0
   40.5673  -45.4013   10.3105 S   0  0  0  0  0  0  0  0  0  0  0  0
   40.9362  -46.0623    8.7814 C   0  0  0  0  0  0  0  0  0  0  0  0
   40.1527  -47.0388    7.9865 C   0  0  0  0  0  0  0  0  0  0  0  0
   39.0902  -47.8075    8.3577 C   0  0  0  0  0  0  0  0  0  0  0  0
   38.5660  -48.6162    7.4271 C   0  0  0  0  0  0  0  0  0  0  0  0
   39.1373  -48.6058    6.1827 C   0  0  0  0  0  0  0  0  0  0  0  0
   40.3925  -47.4613    6.3576 S   0  0  0  0  0  0  0  0  0  0  0  0
   42.0831  -45.4881    8.4862 N   0  0  0  0  0  0  0  0  0  0  0  0
  1  2  1  0  0  0  0
  2  3  1  0  0  0  0
  3  4  2  0  0  0  0
  4  5  1  0  0  0  0
  5  6  2  0  0  0  0
  6  7  1  0  0  0  0
  7  8  2  0  0  0  0
  8  9  1  0  0  0  0
  8  3  1  0  0  0  0
  9 10  1  0  0  0  0
 10 11  1  0  0  0  0
 11 12  2  0  0  0  0
 11 13  1  0  0  0  0
 13 14  1  0  0  0  0
 14 15  1  0  0  0  0
 15 16  2  0  0  0  0
 16 17  1  0  0  0  0
 17 18  1  0  0  0  0
 18 19  1  0  0  0  0
 18 24  2  0  0  0  0
 19 20  2  0  0  0  0
 20 21  1  0  0  0  0
 21 22  2  0  0  0  0
 22 23  1  0  0  0  0
 23 19  1  0  0  0  0
 24 15  1  0  0  0  0
M  END
>  <CHROM.1>
24.78200740,175.48794782,170.48577943,82.45479814,158.88828302,-12.31011351
43.13711299,-46.04724545,6.11706568,0.75982089,-0.44611683,-2.01184955

>  <Name>
design_6

>  <RI>
0

>  <Rbt.Current_Directory>
/home/ziqiaoxu/icml18-jtnn/VAEdesign

>  <Rbt.Executable>
rbdock ($Id: //depot/dev/client3/rdock/2013.1/src/exe/rbdock.cxx#4 $)

>  <Rbt.Library>
libRbt.so (2013.1, Build901 2013/11/27)

>  <Rbt.Parameter_File>
/export/apps/rDock/src/rDock_2013.1_src//data/scripts/dock.prm

>  <Rbt.Receptor>
/home/ziqiaoxu/icml18-jtnn/VAEdesign/targets/RdRp-SARS-CoV-2/pocket_docking.prm

>  <SCORE>
-20.119

>  <SCORE.INTER>
-22.3835

>  <SCORE.INTER.CONST>
1

>  <SCORE.INTER.POLAR>
-1.78885

>  <SCORE.INTER.REPUL>
0

>  <SCORE.INTER.ROT>
6

>  <SCORE.INTER.VDW>
-27.7014

>  <SCORE.INTER.norm>
-0.932644

>  <SCORE.INTRA>
2.26441

>  <SCORE.INTRA.DIHEDRAL>
2.83378

>  <SCORE.INTRA.DIHEDRAL.0>
3.4757

>  <SCORE.INTRA.POLAR>
0

>  <SCORE.INTRA.POLAR.0>
0

>  <SCORE.INTRA.REPUL>
0

>  <SCORE.INTRA.REPUL.0>
0

>  <SCORE.INTRA.VDW>
0.847525

>  <SCORE.INTRA.VDW.0>
0.0504756

>  <SCORE.INTRA.norm>
0.0943506

>  <SCORE.RESTR>
0

>  <SCORE.RESTR.CAVITY>
0

>  <SCORE.RESTR.norm>
0

>  <SCORE.SYSTEM>
0

>  <SCORE.SYSTEM.CONST>
0

>  <SCORE.SYSTEM.DIHEDRAL>
0

>  <SCORE.SYSTEM.norm>
0

>  <SCORE.heavy>
24

>  <SCORE.norm>
-0.838294

$$$$
design_9
 OpenBabel05252019093D

 26 28  0  0  0  0  0  0  0  0999 V2000
   43.3810  -45.4080    3.0062 C   0  0  0  0  0  0  0  0  0  0  0  0
   44.1434  -45.8415    1.8277 C   0  0  0  0  0  0  0  0  0  0  0  0
   43.5051  -45.8528    0.5855 C   0  0  0  0  0  0  0  0  0  0  0  0
   44.2158  -46.2568   -0.5392 C   0  0  0  0  0  0  0  0  0  0  0  0
   45.5168  -46.6312   -0.4047 C   0  0  0  0  0  0  0  0  0  0  0  0
   46.1379  -46.6137    0.8386 C   0  0  0  0  0  0  0  0  0  0  0  0
   47.5832  -46.9900    0.9093 C   0  0  0  0  0  0  0  0  0  0  0  0
   45.4570  -46.2189    1.9736 C   0  0  0  0  0  0  0  0  0  0  0  0
   46.0914  -46.1626    3.2237 N   0  0  0  0  0  0  0  0  0  0  0  0
   46.5221  -45.0591    3.9839 C   0  0  0  0  0  0  0  0  0  0  0  0
   45.6447  -44.5304    5.0317 C   0  0  0  0  0  0  0  0  0  0  0  0
   45.1944  -43.3895    5.1005 O   0  0  0  0  0  0  0  0  0  0  0  0
   45.2867  -45.4477    6.0686 N   0  0  0  0  0  0  0  0  0  0  0  0
   44.4639  -45.1113    7.1683 C   0  0  0  0  0  0  0  0  0  0  0  0
   44.7951  -44.1802    8.1251 C   0  0  0  0  0  0  0  0  0  0  0  0
   43.9016  -43.8899    9.1504 C   0  0  0  0  0  0  0  0  0  0  0  0
   42.6890  -44.5345    9.2069 C   0  0  0  0  0  0  0  0  0  0  0  0
   42.3140  -45.4721    8.2753 C   0  0  0  0  0  0  0  0  0  0  0  0
   41.0531  -46.1372    8.3268 N   0  0  0  0  0  0  0  0  0  0  0  0
   40.6354  -47.0391    7.2424 C   0  0  0  0  0  0  0  0  0  0  0  0
   39.2905  -46.5203    6.7880 C   0  0  0  0  0  0  0  0  0  0  0  0
   38.2721  -46.6710    7.8702 C   0  0  0  0  0  0  0  0  0  0  0  0
   38.8318  -46.7320    9.2620 C   0  0  0  0  0  0  0  0  0  0  0  0
   40.1211  -45.9956    9.3869 C   0  0  0  0  0  0  0  0  0  0  0  0
   40.4164  -45.2673   10.3708 O   0  0  0  0  0  0  0  0  0  0  0  0
   43.2075  -45.7442    7.2730 C   0  0  0  0  0  0  0  0  0  0  0  0
  1  2  1  0  0  0  0
  2  3  2  0  0  0  0
  3  4  1  0  0  0  0
  4  5  2  0  0  0  0
  5  6  1  0  0  0  0
  6  7  1  0  0  0  0
  6  8  2  0  0  0  0
  8  9  1  0  0  0  0
  8  2  1  0  0  0  0
  9 10  1  0  0  0  0
 10 11  1  0  0  0  0
 11 12  2  0  0  0  0
 11 13  1  0  0  0  0
 13 14  1  0  0  0  0
 14 15  2  0  0  0  0
 15 16  1  0  0  0  0
 16 17  2  0  0  0  0
 17 18  1  0  0  0  0
 18 19  1  0  0  0  0
 18 26  2  0  0  0  0
 19 20  1  0  0  0  0
 20 21  1  0  0  0  0
 21 22  1  0  0  0  0
 22 23  1  0  0  0  0
 23 24  1  0  0  0  0
 24 25  2  0  0  0  0
 24 19  1  0  0  0  0
 26 14  1  0  0  0  0
M  END
>  <CHROM.1>
-71.97497841,95.57962037,-120.56261918,-63.81606169,174.14789507,43.39333043
-45.68234995,5.42090237,0.94849964,-0.33362247,-1.84165903

>  <Name>
design_9

>  <RI>
0

>  <Rbt.Current_Directory>
/home/ziqiaoxu/icml18-jtnn/VAEdesign

>  <Rbt.Executable>
rbdock ($Id: //depot/dev/client3/rdock/2013.1/src/exe/rbdock.cxx#4 $)

>  <Rbt.Library>
libRbt.so (2013.1, Build901 2013/11/27)

>  <Rbt.Parameter_File>
/export/apps/rDock/src/rDock_2013.1_src//data/scripts/dock.prm

>  <Rbt.Receptor>
/home/ziqiaoxu/icml18-jtnn/VAEdesign/targets/RdRp-SARS-CoV-2/pocket_docking.prm

>  <SCORE>
-19.5047

>  <SCORE.INTER>
-20.3363

>  <SCORE.INTER.CONST>
1

>  <SCORE.INTER.POLAR>
-0.893282

>  <SCORE.INTER.REPUL>
0

>  <SCORE.INTER.ROT>
5

>  <SCORE.INTER.VDW>
-27.6991

>  <SCORE.INTER.norm>
-0.782164

>  <SCORE.INTRA>
0.831588

>  <SCORE.INTRA.DIHEDRAL>
-0.842316

>  <SCORE.INTRA.DIHEDRAL.0>
26.8426

>  <SCORE.INTRA.POLAR>
0

>  <SCORE.INTRA.POLAR.0>
0

>  <SCORE.INTRA.REPUL>
0

>  <SCORE.INTRA.REPUL.0>
0

>  <SCORE.INTRA.VDW>
1.25275

>  <SCORE.INTRA.VDW.0>
-2.33095

>  <SCORE.INTRA.norm>
0.0319841

>  <SCORE.RESTR>
0

>  <SCORE.RESTR.CAVITY>
0

>  <SCORE.RESTR.norm>
0

>  <SCORE.SYSTEM>
0

>  <SCORE.SYSTEM.CONST>
0

>  <SCORE.SYSTEM.DIHEDRAL>
0

>  <SCORE.SYSTEM.norm>
0

>  <SCORE.heavy>
26

>  <SCORE.norm>
-0.75018

$$$$
design_17
 OpenBabel05252019093D

 25 27  0  0  0  0  0  0  0  0999 V2000
   44.2700  -45.9438    0.0397 C   0  0  0  0  0  0  0  0  0  0  0  0
   45.3331  -46.2990    0.6918 O   0  0  0  0  0  0  0  0  0  0  0  0
   46.4214  -46.7145    1.2479 C   0  0  0  0  0  0  0  0  0  0  0  0
   47.3964  -47.4339    0.5347 C   0  0  0  0  0  0  0  0  0  0  0  0
   48.5490  -47.8848    1.0806 C   0  0  0  0  0  0  0  0  0  0  0  0
   48.8149  -47.6462    2.4031 C   0  0  0  0  0  0  0  0  0  0  0  0
   47.8921  -46.9380    3.1775 C   0  0  0  0  0  0  0  0  0  0  0  0
   46.7339  -46.4842    2.6262 C   0  0  0  0  0  0  0  0  0  0  0  0
   45.6999  -45.7348    3.3283 C   0  0  0  0  0  0  0  0  0  0  0  0
   45.7245  -45.8453    4.7666 N   0  0  0  0  0  0  0  0  0  0  0  0
   44.9097  -44.9342    5.4701 C   0  0  0  0  0  0  0  0  0  0  0  0
   44.2423  -44.0919    4.7875 O   0  0  0  0  0  0  0  0  0  0  0  0
   44.7816  -44.8866    6.9113 C   0  0  0  0  0  0  0  0  0  0  0  0
   43.5586  -45.4391    7.4048 N   0  0  0  0  0  0  0  0  0  0  0  0
   42.7684  -44.8747    8.4378 C   0  0  0  0  0  0  0  0  0  0  0  0
   43.0640  -43.8028    9.0221 O   0  0  0  0  0  0  0  0  0  0  0  0
   41.5399  -45.5244    8.8791 C   0  0  0  0  0  0  0  0  0  0  0  0
   40.8699  -45.2942   10.0771 C   0  0  0  0  0  0  0  0  0  0  0  0
   39.7620  -46.0163   10.1107 N   0  0  0  0  0  0  0  0  0  0  0  0
   39.6839  -46.7242    8.9541 C   0  0  0  0  0  0  0  0  0  0  0  0
   38.7639  -47.6340    8.4732 C   0  0  0  0  0  0  0  0  0  0  0  0
   38.9057  -48.2546    7.2541 C   0  0  0  0  0  0  0  0  0  0  0  0
   39.9930  -47.9832    6.4576 C   0  0  0  0  0  0  0  0  0  0  0  0
   40.9188  -47.0700    6.9371 C   0  0  0  0  0  0  0  0  0  0  0  0
   40.7937  -46.4359    8.1553 C   0  0  0  0  0  0  0  0  0  0  0  0
  1  2  1  0  0  0  0
  2  3  1  0  0  0  0
  3  4  2  0  0  0  0
  4  5  1  0  0  0  0
  5  6  2  0  0  0  0
  6  7  1  0  0  0  0
  7  8  2  0  0  0  0
  8  9  1  0  0  0  0
  8  3  1  0  0  0  0
  9 10  1  0  0  0  0
 10 11  1  0  0  0  0
 11 12  2  0  0  0  0
 11 13  1  0  0  0  0
 13 14  1  0  0  0  0
 14 15  1  0  0  0  0
 15 16  2  0  0  0  0
 15 17  1  0  0  0  0
 17 18  2  0  0  0  0
 18 19  1  0  0  0  0
 19 20  1  0  0  0  0
 20 21  2  0  0  0  0
 21 22  1  0  0  0  0
 22 23  2  0  0  0  0
 23 24  1  0  0  0  0
 24 25  2  0  0  0  0
 25 17  1  0  0  0  0
 25 20  1  0  0  0  0
M  END
>  <CHROM.1>
8.22253863,160.39784391,168.09907643,-104.28303011,-137.82128057,161.92756541
43.67886210,-46.19087534,5.45788015,0.75108328,-0.40300841,-2.03705908

>  <Name>
design_17

>  <RI>
0

>  <Rbt.Current_Directory>
/home/ziqiaoxu/icml18-jtnn/VAEdesign

>  <Rbt.Executable>
rbdock ($Id: //depot/dev/client3/rdock/2013.1/src/exe/rbdock.cxx#4 $)

>  <Rbt.Library>
libRbt.so (2013.1, Build901 2013/11/27)

>  <Rbt.Parameter_File>
/export/apps/rDock/src/rDock_2013.1_src//data/scripts/dock.prm

>  <Rbt.Receptor>
/home/ziqiaoxu/icml18-jtnn/VAEdesign/targets/RdRp-SARS-CoV-2/pocket_docking.prm

>  <SCORE>
-22.9793

>  <SCORE.INTER>
-22.7954

>  <SCORE.INTER.CONST>
1

>  <SCORE.INTER.POLAR>
-1.91423

>  <SCORE.INTER.REPUL>
0.000282369

>  <SCORE.INTER.ROT>
6

>  <SCORE.INTER.VDW>
-27.6884

>  <SCORE.INTER.norm>
-0.911815

>  <SCORE.INTRA>
-0.183916

>  <SCORE.INTRA.DIHEDRAL>
-2.63614

>  <SCORE.INTRA.DIHEDRAL.0>
8.59721

>  <SCORE.INTRA.POLAR>
0

>  <SCORE.INTRA.POLAR.0>
0

>  <SCORE.INTRA.REPUL>
0

>  <SCORE.INTRA.REPUL.0>
0

>  <SCORE.INTRA.VDW>
1.13415

>  <SCORE.INTRA.VDW.0>
-2.59713

>  <SCORE.INTRA.norm>
-0.00735664

>  <SCORE.RESTR>
0

>  <SCORE.RESTR.CAVITY>
0

>  <SCORE.RESTR.norm>
0

>  <SCORE.SYSTEM>
0

>  <SCORE.SYSTEM.CONST>
0

>  <SCORE.SYSTEM.DIHEDRAL>
0

>  <SCORE.SYSTEM.norm>
0

>  <SCORE.heavy>
25

>  <SCORE.norm>
-0.919172

$$$$
design_9
 OpenBabel05252019093D

 23 25  0  0  0  0  0  0  0  0999 V2000
   41.4971  -44.4726   10.7625 C   0  0  0  0  0  0  0  0  0  0  0  0
   40.9496  -45.3621    9.6889 C   0  0  0  0  0  0  0  0  0  0  0  0
   39.7721  -46.0254    9.9357 C   0  0  0  0  0  0  0  0  0  0  0  0
   39.2387  -46.8523    8.9709 C   0  0  0  0  0  0  0  0  0  0  0  0
   39.8426  -47.0561    7.7316 C   0  0  0  0  0  0  0  0  0  0  0  0
   39.1590  -48.1028    6.5218 S   0  0  0  0  0  0  0  0  0  0  0  0
   38.9379  -49.4964    7.0703 O   0  0  0  0  0  0  0  0  0  0  0  0
   40.1748  -48.1754    5.3762 O   0  0  0  0  0  0  0  0  0  0  0  0
   37.7211  -47.5145    5.8008 N   0  0  0  0  0  0  0  0  0  0  0  0
   37.2897  -46.1690    5.7811 C   0  0  0  0  0  0  0  0  0  0  0  0
   36.0870  -45.6877    5.3835 C   0  0  0  0  0  0  0  0  0  0  0  0
   35.7949  -44.3234    5.3951 C   0  0  0  0  0  0  0  0  0  0  0  0
   36.7291  -43.4020    5.8153 C   0  0  0  0  0  0  0  0  0  0  0  0
   36.4323  -42.0142    5.8273 N   0  0  0  0  0  0  0  0  0  0  0  0
   35.3377  -41.4347    5.3337 C   0  0  0  0  0  0  0  0  0  0  0  0
   35.4495  -40.1225    5.5466 N   0  0  0  0  0  0  0  0  0  0  0  0
   36.5951  -39.8912    6.1624 N   0  0  0  0  0  0  0  0  0  0  0  0
   37.1859  -41.0513    6.3284 N   0  0  0  0  0  0  0  0  0  0  0  0
   37.9469  -43.8988    6.2164 C   0  0  0  0  0  0  0  0  0  0  0  0
   38.2470  -45.2399    6.2100 C   0  0  0  0  0  0  0  0  0  0  0  0
   41.0325  -46.3613    7.5324 C   0  0  0  0  0  0  0  0  0  0  0  0
   41.5902  -45.5277    8.4779 C   0  0  0  0  0  0  0  0  0  0  0  0
   42.8624  -44.7919    8.2504 C   0  0  0  0  0  0  0  0  0  0  0  0
  1  2  1  0  0  0  0
  2  3  2  0  0  0  0
  3  4  1  0  0  0  0
  4  5  2  0  0  0  0
  5  6  1  0  0  0  0
  5 21  1  0  0  0  0
  6  7  2  0  0  0  0
  6  8  2  0  0  0  0
  6  9  1  0  0  0  0
  9 10  1  0  0  0  0
 10 11  2  0  0  0  0
 11 12  1  0  0  0  0
 12 13  2  0  0  0  0
 13 14  1  0  0  0  0
 13 19  1  0  0  0  0
 14 15  1  0  0  0  0
 15 16  2  0  0  0  0
 16 17  1  0  0  0  0
 17 18  2  0  0  0  0
 18 14  1  0  0  0  0
 19 20  2  0  0  0  0
 20 10  1  0  0  0  0
 21 22  2  0  0  0  0
 22 23  1  0  0  0  0
 22  2  1  0  0  0  0
M  END
>  <CHROM.1>
-55.74299727,20.47686394,-170.41576271,-7.26431250,38.57345952,-45.12322158
6.92541008,-0.74763112,-0.68149289,0.23607811

>  <Name>
design_9

>  <RI>
0

>  <Rbt.Current_Directory>
/home/ziqiaoxu/icml18-jtnn/VAEdesign

>  <Rbt.Executable>
rbdock ($Id: //depot/dev/client3/rdock/2013.1/src/exe/rbdock.cxx#4 $)

>  <Rbt.Library>
libRbt.so (2013.1, Build901 2013/11/27)

>  <Rbt.Parameter_File>
/export/apps/rDock/src/rDock_2013.1_src//data/scripts/dock.prm

>  <Rbt.Receptor>
/home/ziqiaoxu/icml18-jtnn/VAEdesign/targets/RdRp-SARS-CoV-2/pocket_docking.prm

>  <SCORE>
-21.0557

>  <SCORE.INTER>
-17.656

>  <SCORE.INTER.CONST>
1

>  <SCORE.INTER.POLAR>
0

>  <SCORE.INTER.REPUL>
0.124788

>  <SCORE.INTER.ROT>
4

>  <SCORE.INTER.VDW>
-27.6799

>  <SCORE.INTER.norm>
-0.767651

>  <SCORE.INTRA>
-3.39973

>  <SCORE.INTRA.DIHEDRAL>
-7.83763

>  <SCORE.INTRA.DIHEDRAL.0>
10.8368

>  <SCORE.INTRA.POLAR>
0

>  <SCORE.INTRA.POLAR.0>
0

>  <SCORE.INTRA.REPUL>
0

>  <SCORE.INTRA.REPUL.0>
0

>  <SCORE.INTRA.VDW>
0.519087

>  <SCORE.INTRA.VDW.0>
-2.0289

>  <SCORE.INTRA.norm>
-0.147814

>  <SCORE.RESTR>
0

>  <SCORE.RESTR.CAVITY>
0

>  <SCORE.RESTR.norm>
0

>  <SCORE.SYSTEM>
0

>  <SCORE.SYSTEM.CONST>
0

>  <SCORE.SYSTEM.DIHEDRAL>
0

>  <SCORE.SYSTEM.norm>
0

>  <SCORE.heavy>
23

>  <SCORE.norm>
-0.915465

$$$$
design_3
 OpenBabel05252019093D

 24 25  0  0  0  0  0  0  0  0999 V2000
   45.9191  -46.0851    0.4611 C   0  0  0  0  0  0  0  0  0  0  0  0
   44.3706  -45.7755   -0.3931 S   0  0  0  0  0  0  0  0  0  0  0  0
   43.2569  -44.8520    0.6648 C   0  0  0  0  0  0  0  0  0  0  0  0
   43.1317  -43.4657    0.4838 C   0  0  0  0  0  0  0  0  0  0  0  0
   42.2904  -42.7072    1.2651 C   0  0  0  0  0  0  0  0  0  0  0  0
   41.5481  -43.2867    2.2462 C   0  0  0  0  0  0  0  0  0  0  0  0
   41.6236  -44.6596    2.4814 C   0  0  0  0  0  0  0  0  0  0  0  0
   40.9209  -45.3097    3.4384 N   0  0  0  0  0  0  0  0  0  0  0  0
   40.2181  -45.9534    4.3915 C   0  0  0  0  0  0  0  0  0  0  0  0
   39.1694  -45.5695    4.9569 O   0  0  0  0  0  0  0  0  0  0  0  0
   40.6885  -47.2453    4.8591 N   0  0  0  0  0  0  0  0  0  0  0  0
   39.9602  -47.9224    5.8796 C   0  0  0  0  0  0  0  0  0  0  0  0
   40.0747  -47.2045    7.1959 C   0  0  0  0  0  0  0  0  0  0  0  0
   39.0846  -47.2396    8.1214 C   0  0  0  0  0  0  0  0  0  0  0  0
   39.2792  -46.5593    9.2976 C   0  0  0  0  0  0  0  0  0  0  0  0
   40.4523  -45.8433    9.5597 C   0  0  0  0  0  0  0  0  0  0  0  0
   41.4640  -45.7893    8.6439 C   0  0  0  0  0  0  0  0  0  0  0  0
   42.6929  -45.0440    8.7374 C   0  0  0  0  0  0  0  0  0  0  0  0
   42.8571  -44.4298    9.8850 O   0  0  0  0  0  0  0  0  0  0  0  0
   43.7035  -44.8997    7.7951 N   0  0  0  0  0  0  0  0  0  0  0  0
   43.7753  -45.4799    6.5099 C   0  0  0  0  0  0  0  0  0  0  0  0
   44.8740  -44.0277    8.1455 C   0  0  0  0  0  0  0  0  0  0  0  0
   41.2287  -46.5040    7.4425 C   0  0  0  0  0  0  0  0  0  0  0  0
   42.4984  -45.3842    1.6538 C   0  0  0  0  0  0  0  0  0  0  0  0
  1  2  1  0  0  0  0
  2  3  1  0  0  0  0
  3  4  2  0  0  0  0
  4  5  1  0  0  0  0
  5  6  2  0  0  0  0
  6  7  1  0  0  0  0
  7  8  1  0  0  0  0
  7 24  2  0  0  0  0
  8  9  1  0  0  0  0
  9 10  2  0  0  0  0
  9 11  1  0  0  0  0
 11 12  1  0  0  0  0
 12 13  1  0  0  0  0
 13 14  2  0  0  0  0
 14 15  1  0  0  0  0
 15 16  2  0  0  0  0
 16 17  1  0  0  0  0
 17 18  1  0  0  0  0
 17 23  2  0  0  0  0
 18 19  2  0  0  0  0
 18 20  1  0  0  0  0
 20 21  1  0  0  0  0
 20 22  1  0  0  0  0
 23 13  1  0  0  0  0
 24  3  1  0  0  0  0
M  END
>  <CHROM.1>
99.88364213,19.96980959,-68.80352601,149.74174712,4.68951802,42.04680208
-45.48336424,4.87818546,-1.25203572,0.38478681,1.57341644

>  <Name>
design_3

>  <RI>
0

>  <Rbt.Current_Directory>
/home/ziqiaoxu/icml18-jtnn/VAEdesign

>  <Rbt.Executable>
rbdock ($Id: //depot/dev/client3/rdock/2013.1/src/exe/rbdock.cxx#4 $)

>  <Rbt.Library>
libRbt.so (2013.1, Build901 2013/11/27)

>  <Rbt.Parameter_File>
/export/apps/rDock/src/rDock_2013.1_src//data/scripts/dock.prm

>  <Rbt.Receptor>
/home/ziqiaoxu/icml18-jtnn/VAEdesign/targets/RdRp-SARS-CoV-2/pocket_docking.prm

>  <SCORE>
-20.5574

>  <SCORE.INTER>
-17.2742

>  <SCORE.INTER.CONST>
1

>  <SCORE.INTER.POLAR>
0

>  <SCORE.INTER.REPUL>
0

>  <SCORE.INTER.ROT>
5

>  <SCORE.INTER.VDW>
-27.6742

>  <SCORE.INTER.norm>
-0.719759

>  <SCORE.INTRA>
-3.28321

>  <SCORE.INTRA.DIHEDRAL>
-11.2492

>  <SCORE.INTRA.DIHEDRAL.0>
16.7085

>  <SCORE.INTRA.POLAR>
0

>  <SCORE.INTRA.POLAR.0>
0

>  <SCORE.INTRA.REPUL>
0

>  <SCORE.INTRA.REPUL.0>
0

>  <SCORE.INTRA.VDW>
2.3414

>  <SCORE.INTRA.VDW.0>
-0.42595

>  <SCORE.INTRA.norm>
-0.136801

>  <SCORE.RESTR>
0

>  <SCORE.RESTR.CAVITY>
0

>  <SCORE.RESTR.norm>
0

>  <SCORE.SYSTEM>
0

>  <SCORE.SYSTEM.CONST>
0

>  <SCORE.SYSTEM.DIHEDRAL>
0

>  <SCORE.SYSTEM.norm>
0

>  <SCORE.heavy>
24

>  <SCORE.norm>
-0.85656

$$$$
design_6
 OpenBabel05252019093D

 24 26  0  0  0  0  0  0  0  0999 V2000
   41.2257  -42.5148    8.8442 O   0  0  0  0  0  0  0  0  0  0  0  0
   40.2224  -42.8079    9.5870 C   0  0  0  0  0  0  0  0  0  0  0  0
   39.3498  -41.6413    9.9179 C   0  0  0  0  0  0  0  0  0  0  0  0
   39.7260  -40.4292    9.1360 C   0  0  0  0  0  0  0  0  0  0  0  0
   39.2145  -40.1669    7.9235 N   0  0  0  0  0  0  0  0  0  0  0  0
   39.6907  -38.9930    7.5282 C   0  0  0  0  0  0  0  0  0  0  0  0
   39.3932  -38.3367    6.2632 C   0  0  0  0  0  0  0  0  0  0  0  0
   40.3301  -38.6278    5.1837 C   0  0  0  0  0  0  0  0  0  0  0  0
   40.2414  -38.0204    3.8813 C   0  0  0  0  0  0  0  0  0  0  0  0
   40.5864  -38.7216    2.7337 C   0  0  0  0  0  0  0  0  0  0  0  0
   40.5672  -38.1274    1.4687 C   0  0  0  0  0  0  0  0  0  0  0  0
   40.1946  -36.8031    1.3364 C   0  0  0  0  0  0  0  0  0  0  0  0
   39.8454  -36.0900    2.4765 C   0  0  0  0  0  0  0  0  0  0  0  0
   39.8670  -36.6840    3.7246 C   0  0  0  0  0  0  0  0  0  0  0  0
   40.4979  -38.5468    8.5087 N   0  0  0  0  0  0  0  0  0  0  0  0
   40.5243  -39.4347    9.5095 N   0  0  0  0  0  0  0  0  0  0  0  0
   39.9995  -44.1362   10.0325 N   0  0  0  0  0  0  0  0  0  0  0  0
   40.9470  -45.1393    9.6068 C   0  0  0  0  0  0  0  0  0  0  0  0
   40.3696  -46.1852    8.7479 C   0  0  0  0  0  0  0  0  0  0  0  0
   39.1532  -46.7898    9.0692 C   0  0  0  0  0  0  0  0  0  0  0  0
   38.5857  -47.7760    8.2707 C   0  0  0  0  0  0  0  0  0  0  0  0
   39.2037  -48.1923    7.1337 C   0  0  0  0  0  0  0  0  0  0  0  0
   40.4046  -47.6145    6.7924 C   0  0  0  0  0  0  0  0  0  0  0  0
   40.9840  -46.6209    7.5898 C   0  0  0  0  0  0  0  0  0  0  0  0
  1  2  2  0  0  0  0
  2  3  1  0  0  0  0
  2 17  1  0  0  0  0
  3  4  1  0  0  0  0
  4  5  2  0  0  0  0
  5  6  1  0  0  0  0
  6  7  1  0  0  0  0
  6 15  2  0  0  0  0
  7  8  1  0  0  0  0
  8  9  1  0  0  0  0
  9 10  2  0  0  0  0
 10 11  1  0  0  0  0
 11 12  2  0  0  0  0
 12 13  1  0  0  0  0
 13 14  2  0  0  0  0
 14  9  1  0  0  0  0
 15 16  1  0  0  0  0
 16  4  1  0  0  0  0
 17 18  1  0  0  0  0
 18 19  1  0  0  0  0
 19 20  2  0  0  0  0
 20 21  1  0  0  0  0
 21 22  2  0  0  0  0
 22 23  1  0  0  0  0
 23 24  2  0  0  0  0
 24 19  1  0  0  0  0
M  END
>  <CHROM.1>
8.77482452,88.22610444,-92.17796418,-176.75693801,-145.29114409,-116.13859716
-45.39844983,40.05787347,-41.59411712,6.94989224,-2.97333477,-1.55029009
-1.92303919

>  <Name>
design_6

>  <RI>
0

>  <Rbt.Current_Directory>
/home/ziqiaoxu/icml18-jtnn/VAEdesign

>  <Rbt.Executable>
rbdock ($Id: //depot/dev/client3/rdock/2013.1/src/exe/rbdock.cxx#4 $)

>  <Rbt.Library>
libRbt.so (2013.1, Build901 2013/11/27)

>  <Rbt.Parameter_File>
/export/apps/rDock/src/rDock_2013.1_src//data/scripts/dock.prm

>  <Rbt.Receptor>
/home/ziqiaoxu/icml18-jtnn/VAEdesign/targets/RdRp-SARS-CoV-2/pocket_docking.prm

>  <SCORE>
-17.2476

>  <SCORE.INTER>
-18.7663

>  <SCORE.INTER.CONST>
1

>  <SCORE.INTER.POLAR>
-1.03297

>  <SCORE.INTER.REPUL>
0

>  <SCORE.INTER.ROT>
7

>  <SCORE.INTER.VDW>
-27.6542

>  <SCORE.INTER.norm>
-0.78193

>  <SCORE.INTRA>
1.51872

>  <SCORE.INTRA.DIHEDRAL>
0.126998

>  <SCORE.INTRA.DIHEDRAL.0>
6.75015

>  <SCORE.INTRA.POLAR>
0

>  <SCORE.INTRA.POLAR.0>
0

>  <SCORE.INTRA.REPUL>
0

>  <SCORE.INTRA.REPUL.0>
0

>  <SCORE.INTRA.VDW>
1.45522

>  <SCORE.INTRA.VDW.0>
-2.49795

>  <SCORE.INTRA.norm>
0.06328

>  <SCORE.RESTR>
0

>  <SCORE.RESTR.CAVITY>
0

>  <SCORE.RESTR.norm>
0

>  <SCORE.SYSTEM>
0

>  <SCORE.SYSTEM.CONST>
0

>  <SCORE.SYSTEM.DIHEDRAL>
0

>  <SCORE.SYSTEM.norm>
0

>  <SCORE.heavy>
24

>  <SCORE.norm>
-0.71865

$$$$
design_7
 OpenBabel05252019093D

 26 29  0  0  0  0  0  0  0  0999 V2000
   39.5941  -36.4155    2.3794 C   0  0  0  0  0  0  0  0  0  0  0  0
   39.7492  -37.0093    3.7309 C   0  0  0  0  0  0  0  0  0  0  0  0
   39.4456  -38.3605    3.8665 C   0  0  0  0  0  0  0  0  0  0  0  0
   39.5700  -38.9603    5.1060 C   0  0  0  0  0  0  0  0  0  0  0  0
   39.9845  -38.2749    6.2239 C   0  0  0  0  0  0  0  0  0  0  0  0
   40.0913  -38.9538    7.5236 C   0  0  0  0  0  0  0  0  0  0  0  0
   40.8398  -38.6502    8.5874 N   0  0  0  0  0  0  0  0  0  0  0  0
   40.6356  -39.5228    9.5562 N   0  0  0  0  0  0  0  0  0  0  0  0
   39.7411  -40.3981    9.1018 C   0  0  0  0  0  0  0  0  0  0  0  0
   39.1609  -41.5613    9.7627 C   0  0  0  0  0  0  0  0  0  0  0  0
   40.1529  -42.4900   10.2144 O   0  0  0  0  0  0  0  0  0  0  0  0
   40.9539  -43.1515    9.2541 C   0  0  0  0  0  0  0  0  0  0  0  0
   40.8509  -42.6758    8.0900 O   0  0  0  0  0  0  0  0  0  0  0  0
   41.8312  -44.2845    9.5574 C   0  0  0  0  0  0  0  0  0  0  0  0
   41.6127  -45.3758    8.6514 N   0  0  0  0  0  0  0  0  0  0  0  0
   42.5083  -45.7917    7.7708 N   0  0  0  0  0  0  0  0  0  0  0  0
   42.0235  -46.8076    7.0787 N   0  0  0  0  0  0  0  0  0  0  0  0
   40.7554  -47.0812    7.5130 C   0  0  0  0  0  0  0  0  0  0  0  0
   39.8185  -48.0205    7.1478 C   0  0  0  0  0  0  0  0  0  0  0  0
   38.5946  -48.0679    7.7799 C   0  0  0  0  0  0  0  0  0  0  0  0
   38.3509  -47.1506    8.7771 C   0  0  0  0  0  0  0  0  0  0  0  0
   39.2918  -46.2133    9.1380 C   0  0  0  0  0  0  0  0  0  0  0  0
   40.5295  -46.1468    8.5169 C   0  0  0  0  0  0  0  0  0  0  0  0
   39.4184  -40.0386    7.8603 O   0  0  0  0  0  0  0  0  0  0  0  0
   40.2832  -36.9449    6.0896 C   0  0  0  0  0  0  0  0  0  0  0  0
   40.1652  -36.3137    4.8430 C   0  0  0  0  0  0  0  0  0  0  0  0
  1  2  1  0  0  0  0
  2  3  2  0  0  0  0
  3  4  1  0  0  0  0
  4  5  2  0  0  0  0
  5  6  1  0  0  0  0
  5 25  1  0  0  0  0
  6  7  2  0  0  0  0
  7  8  1  0  0  0  0
  8  9  2  0  0  0  0
  9 10  1  0  0  0  0
  9 24  1  0  0  0  0
 10 11  1  0  0  0  0
 11 12  1  0  0  0  0
 12 13  2  0  0  0  0
 12 14  1  0  0  0  0
 14 15  1  0  0  0  0
 15 16  1  0  0  0  0
 16 17  2  0  0  0  0
 17 18  1  0  0  0  0
 18 19  2  0  0  0  0
 19 20  1  0  0  0  0
 20 21  2  0  0  0  0
 21 22  1  0  0  0  0
 22 23  2  0  0  0  0
 23 15  1  0  0  0  0
 23 18  1  0  0  0  0
 24  6  1  0  0  0  0
 25 26  2  0  0  0  0
 26  2  1  0  0  0  0
M  END
>  <CHROM.1>
155.84493938,-56.59668834,-64.75400997,11.26841939,129.73399057,113.39821741
40.24231420,-42.09147397,7.49496437,2.10092787,-1.47013601,0.19906628

>  <Name>
design_7

>  <RI>
0

>  <Rbt.Current_Directory>
/home/ziqiaoxu/icml18-jtnn/VAEdesign

>  <Rbt.Executable>
rbdock ($Id: //depot/dev/client3/rdock/2013.1/src/exe/rbdock.cxx#4 $)

>  <Rbt.Library>
libRbt.so (2013.1, Build901 2013/11/27)

>  <Rbt.Parameter_File>
/export/apps/rDock/src/rDock_2013.1_src//data/scripts/dock.prm

>  <Rbt.Receptor>
/home/ziqiaoxu/icml18-jtnn/VAEdesign/targets/RdRp-SARS-CoV-2/pocket_docking.prm

>  <SCORE>
-16.3172

>  <SCORE.INTER>
-17.512

>  <SCORE.INTER.CONST>
1

>  <SCORE.INTER.POLAR>
-0.370498

>  <SCORE.INTER.REPUL>
0

>  <SCORE.INTER.ROT>
6

>  <SCORE.INTER.VDW>
-27.6523

>  <SCORE.INTER.norm>
-0.673537

>  <SCORE.INTRA>
1.19403

>  <SCORE.INTRA.DIHEDRAL>
3.17489

>  <SCORE.INTRA.DIHEDRAL.0>
5.07673

>  <SCORE.INTRA.POLAR>
0

>  <SCORE.INTRA.POLAR.0>
0

>  <SCORE.INTRA.REPUL>
0

>  <SCORE.INTRA.REPUL.0>
0

>  <SCORE.INTRA.VDW>
-0.393413

>  <SCORE.INTRA.VDW.0>
-0.274709

>  <SCORE.INTRA.norm>
0.0459243

>  <SCORE.RESTR>
0.000740352

>  <SCORE.RESTR.CAVITY>
0.000740352

>  <SCORE.RESTR.norm>
2.84751e-05

>  <SCORE.SYSTEM>
0

>  <SCORE.SYSTEM.CONST>
0

>  <SCORE.SYSTEM.DIHEDRAL>
0

>  <SCORE.SYSTEM.norm>
0

>  <SCORE.heavy>
26

>  <SCORE.norm>
-0.627585

$$$$
design_6
 OpenBabel05252019093D

 25 28  0  0  0  0  0  0  0  0999 V2000
   39.6372  -36.2852    2.4117 C   0  0  0  0  0  0  0  0  0  0  0  0
   39.8502  -36.5956    3.8533 C   0  0  0  0  0  0  0  0  0  0  0  0
   40.3096  -35.7267    4.7844 N   0  0  0  0  0  0  0  0  0  0  0  0
   40.3721  -36.3474    5.9571 N   0  0  0  0  0  0  0  0  0  0  0  0
   39.9557  -37.6262    5.8086 C   0  0  0  0  0  0  0  0  0  0  0  0
   39.8798  -38.6247    6.8646 C   0  0  0  0  0  0  0  0  0  0  0  0
   39.1500  -39.7749    6.6695 C   0  0  0  0  0  0  0  0  0  0  0  0
   39.0665  -40.7376    7.6651 C   0  0  0  0  0  0  0  0  0  0  0  0
   39.7202  -40.5494    8.8714 C   0  0  0  0  0  0  0  0  0  0  0  0
   39.6386  -41.5723    9.9447 C   0  0  0  0  0  0  0  0  0  0  0  0
   40.5596  -42.6584    9.7066 N   0  0  0  0  0  0  0  0  0  0  0  0
   39.8285  -43.9166    9.7340 C   0  0  0  0  0  0  0  0  0  0  0  0
   40.7634  -45.0735   10.0602 C   0  0  1  0  0  0  0  0  0  0  0  0
   39.9790  -46.3631   10.1586 C   0  0  0  0  0  0  0  0  0  0  0  0
   39.1605  -46.5217    8.8736 C   0  0  0  0  0  0  0  0  0  0  0  0
   39.9358  -46.2446    7.7391 O   0  0  0  0  0  0  0  0  0  0  0  0
   41.2424  -45.8141    7.7746 C   0  0  0  0  0  0  0  0  0  0  0  0
   42.1148  -45.9505    6.7142 C   0  0  0  0  0  0  0  0  0  0  0  0
   43.4104  -45.5007    6.8084 C   0  0  0  0  0  0  0  0  0  0  0  0
   43.8756  -44.9061    7.9502 C   0  0  0  0  0  0  0  0  0  0  0  0
   43.0270  -44.7594    9.0178 C   0  0  0  0  0  0  0  0  0  0  0  0
   41.7086  -45.2162    8.9242 C   0  0  0  0  0  0  0  0  0  0  0  0
   40.4507  -39.3925    9.0598 C   0  0  0  0  0  0  0  0  0  0  0  0
   40.5341  -38.4234    8.0561 C   0  0  0  0  0  0  0  0  0  0  0  0
   39.6447  -37.7411    4.5082 N   0  0  0  0  0  0  0  0  0  0  0  0
  1  2  1  0  0  0  0
  2  3  2  0  0  0  0
  3  4  1  0  0  0  0
  4  5  1  0  0  0  0
  5  6  1  0  0  0  0
  5 25  2  0  0  0  0
  6  7  2  0  0  0  0
  7  8  1  0  0  0  0
  8  9  2  0  0  0  0
  9 10  1  0  0  0  0
  9 23  1  0  0  0  0
 10 11  1  0  0  0  0
 11 12  1  0  0  0  0
 13 12  1  6  0  0  0
 13 14  1  0  0  0  0
 14 15  1  0  0  0  0
 15 16  1  0  0  0  0
 16 17  1  0  0  0  0
 17 18  2  0  0  0  0
 18 19  1  0  0  0  0
 19 20  2  0  0  0  0
 20 21  1  0  0  0  0
 21 22  2  0  0  0  0
 22 13  1  0  0  0  0
 22 17  1  0  0  0  0
 23 24  2  0  0  0  0
 24  6  1  0  0  0  0
 25  2  1  0  0  0  0
M  END
>  <CHROM.1>
164.38772511,80.63883538,-126.02975211,-156.75515968,176.97656670,40.53164011
-41.69604562,7.50978899,-1.84728459,-1.06156077,2.49557134

>  <Name>
design_6

>  <RI>
0

>  <Rbt.Current_Directory>
/home/ziqiaoxu/icml18-jtnn/VAEdesign

>  <Rbt.Executable>
rbdock ($Id: //depot/dev/client3/rdock/2013.1/src/exe/rbdock.cxx#4 $)

>  <Rbt.Library>
libRbt.so (2013.1, Build901 2013/11/27)

>  <Rbt.Parameter_File>
/export/apps/rDock/src/rDock_2013.1_src//data/scripts/dock.prm

>  <Rbt.Receptor>
/home/ziqiaoxu/icml18-jtnn/VAEdesign/targets/RdRp-SARS-CoV-2/pocket_docking.prm

>  <SCORE>
-16.774

>  <SCORE.INTER>
-18.8543

>  <SCORE.INTER.CONST>
1

>  <SCORE.INTER.POLAR>
-0.606792

>  <SCORE.INTER.REPUL>
0.0881065

>  <SCORE.INTER.ROT>
5

>  <SCORE.INTER.VDW>
-27.6318

>  <SCORE.INTER.norm>
-0.754172

>  <SCORE.INTRA>
1.58822

>  <SCORE.INTRA.DIHEDRAL>
4.00621

>  <SCORE.INTRA.DIHEDRAL.0>
0.762452

>  <SCORE.INTRA.POLAR>
0

>  <SCORE.INTRA.POLAR.0>
0

>  <SCORE.INTRA.REPUL>
0

>  <SCORE.INTRA.REPUL.0>
0

>  <SCORE.INTRA.VDW>
-0.414889

>  <SCORE.INTRA.VDW.0>
-1.6933

>  <SCORE.INTRA.norm>
0.0635287

>  <SCORE.RESTR>
0.492128

>  <SCORE.RESTR.CAVITY>
0.492128

>  <SCORE.RESTR.norm>
0.0196851

>  <SCORE.SYSTEM>
0

>  <SCORE.SYSTEM.CONST>
0

>  <SCORE.SYSTEM.DIHEDRAL>
0

>  <SCORE.SYSTEM.norm>
0

>  <SCORE.heavy>
25

>  <SCORE.norm>
-0.670959

$$$$
design_13
 OpenBabel05252019093D

 24 26  0  0  0  0  0  0  0  0999 V2000
   39.6061  -48.5287    6.5575 C   0  0  0  0  0  0  0  0  0  0  0  0
   40.0529  -47.4953    7.5293 C   0  0  0  0  0  0  0  0  0  0  0  0
   39.2620  -47.2873    8.6416 C   0  0  0  0  0  0  0  0  0  0  0  0
   39.6518  -46.3308    9.5658 C   0  0  0  0  0  0  0  0  0  0  0  0
   40.8057  -45.6321    9.3365 C   0  0  0  0  0  0  0  0  0  0  0  0
   41.1834  -44.6095   10.3657 C   0  0  0  0  0  0  0  0  0  0  0  0
   41.6114  -45.8303    8.2223 C   0  0  0  0  0  0  0  0  0  0  0  0
   43.0622  -44.8352    8.0899 S   0  0  0  0  0  0  0  0  0  0  0  0
   44.3034  -45.4513    6.9945 C   0  0  0  0  0  0  0  0  0  0  0  0
   43.7481  -45.3649    5.5784 C   0  0  0  0  0  0  0  0  0  0  0  0
   42.5634  -45.0115    5.4248 O   0  0  0  0  0  0  0  0  0  0  0  0
   44.5590  -45.6776    4.4835 N   0  0  0  0  0  0  0  0  0  0  0  0
   44.2373  -45.6589    3.1321 C   0  0  0  0  0  0  0  0  0  0  0  0
   43.0764  -45.1814    2.5770 C   0  0  0  0  0  0  0  0  0  0  0  0
   42.8374  -45.2029    1.1995 C   0  0  0  0  0  0  0  0  0  0  0  0
   43.7587  -45.7064    0.3305 C   0  0  0  0  0  0  0  0  0  0  0  0
   44.9291  -46.1917    0.8502 C   0  0  0  0  0  0  0  0  0  0  0  0
   45.1632  -46.1697    2.2075 C   0  0  0  0  0  0  0  0  0  0  0  0
   46.3860  -46.6765    2.7516 N   0  0  0  0  0  0  0  0  0  0  0  0
   47.1495  -47.6019    2.1434 C   0  0  0  0  0  0  0  0  0  0  0  0
   48.1923  -47.8275    2.9295 N   0  0  0  0  0  0  0  0  0  0  0  0
   48.0599  -47.0616    3.9775 N   0  0  0  0  0  0  0  0  0  0  0  0
   46.9506  -46.3289    3.9085 N   0  0  0  0  0  0  0  0  0  0  0  0
   41.2151  -46.7783    7.3167 C   0  0  0  0  0  0  0  0  0  0  0  0
  1  2  1  0  0  0  0
  2  3  2  0  0  0  0
  3  4  1  0  0  0  0
  4  5  2  0  0  0  0
  5  6  1  0  0  0  0
  5  7  1  0  0  0  0
  7  8  1  0  0  0  0
  7 24  2  0  0  0  0
  8  9  1  0  0  0  0
  9 10  1  0  0  0  0
 10 11  2  0  0  0  0
 10 12  1  0  0  0  0
 12 13  1  0  0  0  0
 13 14  2  0  0  0  0
 14 15  1  0  0  0  0
 15 16  2  0  0  0  0
 16 17  1  0  0  0  0
 17 18  2  0  0  0  0
 18 19  1  0  0  0  0
 18 13  1  0  0  0  0
 19 20  1  0  0  0  0
 20 21  2  0  0  0  0
 21 22  1  0  0  0  0
 22 23  2  0  0  0  0
 23 19  1  0  0  0  0
 24  2  1  0  0  0  0
M  END
>  <CHROM.1>
160.78718106,67.74768888,-5.58689073,7.70317212,155.11141353,43.44054253
-46.11126246,5.34306379,2.26012118,0.03102516,1.48704231

>  <Name>
design_13

>  <RI>
0

>  <Rbt.Current_Directory>
/home/ziqiaoxu/icml18-jtnn/VAEdesign

>  <Rbt.Executable>
rbdock ($Id: //depot/dev/client3/rdock/2013.1/src/exe/rbdock.cxx#4 $)

>  <Rbt.Library>
libRbt.so (2013.1, Build901 2013/11/27)

>  <Rbt.Parameter_File>
/export/apps/rDock/src/rDock_2013.1_src//data/scripts/dock.prm

>  <Rbt.Receptor>
/home/ziqiaoxu/icml18-jtnn/VAEdesign/targets/RdRp-SARS-CoV-2/pocket_docking.prm

>  <SCORE>
-23.3135

>  <SCORE.INTER>
-17.2306

>  <SCORE.INTER.CONST>
1

>  <SCORE.INTER.POLAR>
0

>  <SCORE.INTER.REPUL>
0

>  <SCORE.INTER.ROT>
5

>  <SCORE.INTER.VDW>
-27.6306

>  <SCORE.INTER.norm>
-0.717941

>  <SCORE.INTRA>
-6.08296

>  <SCORE.INTRA.DIHEDRAL>
-10.1612

>  <SCORE.INTRA.DIHEDRAL.0>
16.0865

>  <SCORE.INTRA.POLAR>
-0.646957

>  <SCORE.INTRA.POLAR.0>
0

>  <SCORE.INTRA.REPUL>
0

>  <SCORE.INTRA.REPUL.0>
0

>  <SCORE.INTRA.VDW>
1.19727

>  <SCORE.INTRA.VDW.0>
-1.36377

>  <SCORE.INTRA.norm>
-0.253457

>  <SCORE.RESTR>
0

>  <SCORE.RESTR.CAVITY>
0

>  <SCORE.RESTR.norm>
0

>  <SCORE.SYSTEM>
0

>  <SCORE.SYSTEM.CONST>
0

>  <SCORE.SYSTEM.DIHEDRAL>
0

>  <SCORE.SYSTEM.norm>
0

>  <SCORE.heavy>
24

>  <SCORE.norm>
-0.971397

$$$$
design_17
 OpenBabel05252019093D

 23 24  0  0  0  0  0  0  0  0999 V2000
   39.2269  -48.8308    6.4282 C   0  0  0  0  0  0  0  0  0  0  0  0
   39.6341  -47.8105    7.4310 C   0  0  0  0  0  0  0  0  0  0  0  0
   38.7687  -47.5554    8.4709 C   0  0  0  0  0  0  0  0  0  0  0  0
   39.1169  -46.6156    9.4160 C   0  0  0  0  0  0  0  0  0  0  0  0
   40.3184  -45.9560    9.2983 C   0  0  0  0  0  0  0  0  0  0  0  0
   41.2117  -46.1897    8.2635 C   0  0  0  0  0  0  0  0  0  0  0  0
   42.4570  -45.4397    8.2283 C   0  0  0  0  0  0  0  0  0  0  0  0
   42.6731  -44.5760    9.1339 O   0  0  0  0  0  0  0  0  0  0  0  0
   43.4483  -45.6083    7.2490 N   0  0  0  0  0  0  0  0  0  0  0  0
   44.6836  -44.8955    7.1675 C   0  0  0  0  0  0  0  0  0  0  0  0
   45.1229  -44.5957    5.7695 C   0  0  0  0  0  0  0  0  0  0  0  0
   44.7949  -43.5063    5.2440 O   0  0  0  0  0  0  0  0  0  0  0  0
   45.8984  -45.5618    5.0892 N   0  0  0  0  0  0  0  0  0  0  0  0
   46.3679  -45.3802    3.7509 C   0  0  0  0  0  0  0  0  0  0  0  0
   46.2774  -46.6479    2.9376 C   0  0  0  0  0  0  0  0  0  0  0  0
   45.3926  -46.3861    1.7473 C   0  0  0  0  0  0  0  0  0  0  0  0
   44.0897  -45.9287    1.9346 C   0  0  0  0  0  0  0  0  0  0  0  0
   43.2433  -45.6679    0.8765 C   0  0  0  0  0  0  0  0  0  0  0  0
   43.7187  -45.8721   -0.4011 C   0  0  0  0  0  0  0  0  0  0  0  0
   45.0052  -46.3239   -0.5900 C   0  0  0  0  0  0  0  0  0  0  0  0
   45.8565  -46.5865    0.4670 C   0  0  0  0  0  0  0  0  0  0  0  0
   47.4862  -47.1674    0.2311 Cl  0  0  0  0  0  0  0  0  0  0  0  0
   40.8534  -47.1317    7.3241 C   0  0  0  0  0  0  0  0  0  0  0  0
  1  2  1  0  0  0  0
  2  3  2  0  0  0  0
  3  4  1  0  0  0  0
  4  5  2  0  0  0  0
  5  6  1  0  0  0  0
  6  7  1  0  0  0  0
  6 23  2  0  0  0  0
  7  8  2  0  0  0  0
  7  9  1  0  0  0  0
  9 10  1  0  0  0  0
 10 11  1  0  0  0  0
 11 12  2  0  0  0  0
 11 13  1  0  0  0  0
 13 14  1  0  0  0  0
 14 15  1  0  0  0  0
 15 16  1  0  0  0  0
 16 17  2  0  0  0  0
 17 18  1  0  0  0  0
 18 19  2  0  0  0  0
 19 20  1  0  0  0  0
 20 21  2  0  0  0  0
 21 22  1  0  0  0  0
 21 16  1  0  0  0  0
 23  2  1  0  0  0  0
M  END
>  <CHROM.1>
-1.34053198,-143.82487089,92.30422300,-140.00621216,120.79170081,-56.82038346
43.59662514,-46.14263168,4.74716158,2.27528799,0.44443685,1.23623589

>  <Name>
design_17

>  <RI>
0

>  <Rbt.Current_Directory>
/home/ziqiaoxu/icml18-jtnn/VAEdesign

>  <Rbt.Executable>
rbdock ($Id: //depot/dev/client3/rdock/2013.1/src/exe/rbdock.cxx#4 $)

>  <Rbt.Library>
libRbt.so (2013.1, Build901 2013/11/27)

>  <Rbt.Parameter_File>
/export/apps/rDock/src/rDock_2013.1_src//data/scripts/dock.prm

>  <Rbt.Receptor>
/home/ziqiaoxu/icml18-jtnn/VAEdesign/targets/RdRp-SARS-CoV-2/pocket_docking.prm

>  <SCORE>
-16.2035

>  <SCORE.INTER>
-19.2558

>  <SCORE.INTER.CONST>
1

>  <SCORE.INTER.POLAR>
-0.894427

>  <SCORE.INTER.REPUL>
0

>  <SCORE.INTER.ROT>
6

>  <SCORE.INTER.VDW>
-27.6148

>  <SCORE.INTER.norm>
-0.837209

>  <SCORE.INTRA>
3.0523

>  <SCORE.INTRA.DIHEDRAL>
5.51837

>  <SCORE.INTRA.DIHEDRAL.0>
4.46191

>  <SCORE.INTRA.POLAR>
0

>  <SCORE.INTRA.POLAR.0>
0

>  <SCORE.INTRA.REPUL>
0

>  <SCORE.INTRA.REPUL.0>
0

>  <SCORE.INTRA.VDW>
0.293118

>  <SCORE.INTRA.VDW.0>
-1.17717

>  <SCORE.INTRA.norm>
0.132709

>  <SCORE.RESTR>
0

>  <SCORE.RESTR.CAVITY>
0

>  <SCORE.RESTR.norm>
0

>  <SCORE.SYSTEM>
0

>  <SCORE.SYSTEM.CONST>
0

>  <SCORE.SYSTEM.DIHEDRAL>
0

>  <SCORE.SYSTEM.norm>
0

>  <SCORE.heavy>
23

>  <SCORE.norm>
-0.7045

$$$$
design_0
 OpenBabel05252019093D

 24 26  0  0  0  0  0  0  0  0999 V2000
   35.4014  -41.6086    5.5564 C   0  0  0  0  0  0  0  0  0  0  0  0
   36.6105  -42.2463    6.2071 C   0  0  0  0  0  0  0  0  0  0  0  0
   36.6508  -43.7087    5.9758 C   0  0  0  0  0  0  0  0  0  0  0  0
   37.7196  -44.5725    5.9145 C   0  0  0  0  0  0  0  0  0  0  0  0
   37.2776  -45.8595    5.6766 C   0  0  0  0  0  0  0  0  0  0  0  0
   38.0656  -47.1128    5.5327 C   0  0  0  0  0  0  0  0  0  0  0  0
   39.4515  -46.7505    5.4514 N   0  0  0  0  0  0  0  0  0  0  0  0
   40.2814  -47.4010    6.4175 C   0  0  0  0  0  0  0  0  0  0  0  0
   40.2803  -46.7929    7.7362 C   0  0  0  0  0  0  0  0  0  0  0  0
   39.2590  -46.9152    8.6279 C   0  0  0  0  0  0  0  0  0  0  0  0
   39.2775  -46.3319    9.8722 C   0  0  0  0  0  0  0  0  0  0  0  0
   40.3548  -45.5886   10.2643 C   0  0  0  0  0  0  0  0  0  0  0  0
   41.4180  -45.4443    9.3729 C   0  0  0  0  0  0  0  0  0  0  0  0
   41.3963  -46.0278    8.1318 C   0  0  0  0  0  0  0  0  0  0  0  0
   42.4476  -45.9043    7.2091 N   0  0  0  0  0  0  0  0  0  0  0  0
   43.7017  -45.3064    7.4011 C   0  0  0  0  0  0  0  0  0  0  0  0
   44.0707  -44.7823    8.4562 O   0  0  0  0  0  0  0  0  0  0  0  0
   44.6968  -45.2669    6.3057 C   0  0  0  0  0  0  0  0  0  0  0  0
   45.9582  -44.7325    6.3425 C   0  0  0  0  0  0  0  0  0  0  0  0
   46.5176  -44.9233    5.1001 C   0  0  0  0  0  0  0  0  0  0  0  0
   45.5629  -45.5723    4.3522 C   0  0  0  0  0  0  0  0  0  0  0  0
   44.5162  -45.7472    5.1115 O   0  0  0  0  0  0  0  0  0  0  0  0
   35.9238  -45.7389    5.5984 N   0  0  0  0  0  0  0  0  0  0  0  0
   35.5613  -44.4893    5.7723 N   0  0  0  0  0  0  0  0  0  0  0  0
  1  2  1  0  0  0  0
  2  3  1  0  0  0  0
  3  4  1  0  0  0  0
  4  5  2  0  0  0  0
  5  6  1  0  0  0  0
  5 23  1  0  0  0  0
  6  7  1  0  0  0  0
  7  8  1  0  0  0  0
  8  9  1  0  0  0  0
  9 10  2  0  0  0  0
 10 11  1  0  0  0  0
 11 12  2  0  0  0  0
 12 13  1  0  0  0  0
 13 14  2  0  0  0  0
 14 15  1  0  0  0  0
 14  9  1  0  0  0  0
 15 16  1  0  0  0  0
 16 17  2  0  0  0  0
 16 18  1  0  0  0  0
 18 19  2  0  0  0  0
 19 20  1  0  0  0  0
 20 21  2  0  0  0  0
 21 22  1  0  0  0  0
 22 18  1  0  0  0  0
 23 24  1  0  0  0  0
 24  3  2  0  0  0  0
M  END
>  <CHROM.1>
152.20279846,-9.91804438,125.18988332,-81.76125419,75.54742555,-173.79423912
-179.41888646,40.49182826,-45.35736676,6.72808439,-3.06065306,-0.09225926
2.01637363

>  <Name>
design_0

>  <RI>
0

>  <Rbt.Current_Directory>
/home/ziqiaoxu/icml18-jtnn/VAEdesign

>  <Rbt.Executable>
rbdock ($Id: //depot/dev/client3/rdock/2013.1/src/exe/rbdock.cxx#4 $)

>  <Rbt.Library>
libRbt.so (2013.1, Build901 2013/11/27)

>  <Rbt.Parameter_File>
/export/apps/rDock/src/rDock_2013.1_src//data/scripts/dock.prm

>  <Rbt.Receptor>
/home/ziqiaoxu/icml18-jtnn/VAEdesign/targets/RdRp-SARS-CoV-2/pocket_docking.prm

>  <SCORE>
-17.4434

>  <SCORE.INTER>
-18.4707

>  <SCORE.INTER.CONST>
1

>  <SCORE.INTER.POLAR>
-0.959166

>  <SCORE.INTER.REPUL>
0

>  <SCORE.INTER.ROT>
7

>  <SCORE.INTER.VDW>
-27.6096

>  <SCORE.INTER.norm>
-0.769615

>  <SCORE.INTRA>
1.02738

>  <SCORE.INTRA.DIHEDRAL>
3.43455

>  <SCORE.INTRA.DIHEDRAL.0>
2.527

>  <SCORE.INTRA.POLAR>
0

>  <SCORE.INTRA.POLAR.0>
0

>  <SCORE.INTRA.REPUL>
0

>  <SCORE.INTRA.REPUL.0>
0

>  <SCORE.INTRA.VDW>
-0.689896

>  <SCORE.INTRA.VDW.0>
0.20619

>  <SCORE.INTRA.norm>
0.0428074

>  <SCORE.RESTR>
0

>  <SCORE.RESTR.CAVITY>
0

>  <SCORE.RESTR.norm>
0

>  <SCORE.SYSTEM>
0

>  <SCORE.SYSTEM.CONST>
0

>  <SCORE.SYSTEM.DIHEDRAL>
0

>  <SCORE.SYSTEM.norm>
0

>  <SCORE.heavy>
24

>  <SCORE.norm>
-0.726807

$$$$
design_3
 OpenBabel05252019093D

 26 28  0  0  0  0  0  0  0  0999 V2000
   40.0471  -46.3352   10.2567 N   0  0  0  0  0  0  0  0  0  0  0  0
   40.5364  -46.1290    8.9096 C   0  0  0  0  0  0  0  0  0  0  0  0
   41.3013  -45.1749    8.7604 O   0  0  0  0  0  0  0  0  0  0  0  0
   40.0927  -47.0457    7.8701 C   0  0  0  0  0  0  0  0  0  0  0  0
   39.0930  -47.9746    8.1982 C   0  0  0  0  0  0  0  0  0  0  0  0
   38.5914  -48.9086    7.3288 C   0  0  0  0  0  0  0  0  0  0  0  0
   39.0953  -48.9372    6.0649 C   0  0  0  0  0  0  0  0  0  0  0  0
   40.0856  -48.0365    5.6946 C   0  0  0  0  0  0  0  0  0  0  0  0
   40.5871  -47.0888    6.5946 C   0  0  0  0  0  0  0  0  0  0  0  0
   41.5678  -46.1897    6.1236 N   0  0  0  0  0  0  0  0  0  0  0  0
   42.0090  -46.1578    4.7474 C   0  0  0  0  0  0  0  0  0  0  0  0
   41.9192  -44.7718    4.1619 C   0  0  0  0  0  0  0  0  0  0  0  0
   41.3014  -43.8779    4.7672 O   0  0  0  0  0  0  0  0  0  0  0  0
   42.5614  -44.5654    2.9234 N   0  0  0  0  0  0  0  0  0  0  0  0
   42.6196  -43.3749    2.1759 C   0  0  0  0  0  0  0  0  0  0  0  0
   42.0424  -42.1975    2.5469 C   0  0  0  0  0  0  0  0  0  0  0  0
   42.0727  -41.0456    1.7535 C   0  0  0  0  0  0  0  0  0  0  0  0
   42.7007  -41.0527    0.5365 C   0  0  0  0  0  0  0  0  0  0  0  0
   43.2859  -42.2274    0.1499 C   0  0  0  0  0  0  0  0  0  0  0  0
   43.2661  -43.3890    0.9318 C   0  0  0  0  0  0  0  0  0  0  0  0
   43.9719  -44.5465    0.4175 C   0  0  0  0  0  0  0  0  0  0  0  0
   43.3305  -45.6837    0.0080 C   0  0  0  0  0  0  0  0  0  0  0  0
   44.0127  -46.7834   -0.4815 C   0  0  0  0  0  0  0  0  0  0  0  0
   45.3816  -46.7447   -0.5646 C   0  0  0  0  0  0  0  0  0  0  0  0
   46.0490  -45.5967   -0.1526 C   0  0  0  0  0  0  0  0  0  0  0  0
   45.3393  -44.4963    0.3392 C   0  0  0  0  0  0  0  0  0  0  0  0
  1  2  1  0  0  0  0
  2  3  2  0  0  0  0
  2  4  1  0  0  0  0
  4  5  2  0  0  0  0
  5  6  1  0  0  0  0
  6  7  2  0  0  0  0
  7  8  1  0  0  0  0
  8  9  2  0  0  0  0
  9 10  1  0  0  0  0
  9  4  1  0  0  0  0
 10 11  1  0  0  0  0
 11 12  1  0  0  0  0
 12 13  2  0  0  0  0
 12 14  1  0  0  0  0
 14 15  1  0  0  0  0
 15 16  2  0  0  0  0
 16 17  1  0  0  0  0
 17 18  2  0  0  0  0
 18 19  1  0  0  0  0
 19 20  2  0  0  0  0
 20 21  1  0  0  0  0
 20 15  1  0  0  0  0
 21 22  2  0  0  0  0
 22 23  1  0  0  0  0
 23 24  2  0  0  0  0
 24 25  1  0  0  0  0
 25 26  2  0  0  0  0
 26 21  1  0  0  0  0
M  END
>  <CHROM.1>
7.57163051,-174.53819061,127.27032455,-12.02535274,-0.07613435,70.19008241
42.00869655,-45.32211286,3.95632969,2.76280178,-1.08682946,3.10523852

>  <Name>
design_3

>  <RI>
0

>  <Rbt.Current_Directory>
/home/ziqiaoxu/icml18-jtnn/VAEdesign

>  <Rbt.Executable>
rbdock ($Id: //depot/dev/client3/rdock/2013.1/src/exe/rbdock.cxx#4 $)

>  <Rbt.Library>
libRbt.so (2013.1, Build901 2013/11/27)

>  <Rbt.Parameter_File>
/export/apps/rDock/src/rDock_2013.1_src//data/scripts/dock.prm

>  <Rbt.Receptor>
/home/ziqiaoxu/icml18-jtnn/VAEdesign/targets/RdRp-SARS-CoV-2/pocket_docking.prm

>  <SCORE>
-23.0621

>  <SCORE.INTER>
-23.3165

>  <SCORE.INTER.CONST>
1

>  <SCORE.INTER.POLAR>
-2.09077

>  <SCORE.INTER.REPUL>
0

>  <SCORE.INTER.ROT>
6

>  <SCORE.INTER.VDW>
-27.6079

>  <SCORE.INTER.norm>
-0.896788

>  <SCORE.INTRA>
0.254419

>  <SCORE.INTRA.DIHEDRAL>
0.58339

>  <SCORE.INTRA.DIHEDRAL.0>
7.65532

>  <SCORE.INTRA.POLAR>
0

>  <SCORE.INTRA.POLAR.0>
0

>  <SCORE.INTRA.REPUL>
0

>  <SCORE.INTRA.REPUL.0>
0

>  <SCORE.INTRA.VDW>
-0.0372762

>  <SCORE.INTRA.VDW.0>
-1.00028

>  <SCORE.INTRA.norm>
0.00978534

>  <SCORE.RESTR>
0

>  <SCORE.RESTR.CAVITY>
0

>  <SCORE.RESTR.norm>
0

>  <SCORE.SYSTEM>
0

>  <SCORE.SYSTEM.CONST>
0

>  <SCORE.SYSTEM.DIHEDRAL>
0

>  <SCORE.SYSTEM.norm>
0

>  <SCORE.heavy>
26

>  <SCORE.norm>
-0.887003

$$$$
design_16
 OpenBabel05252019093D

 23 26  0  0  0  0  0  0  0  0999 V2000
   47.5486  -47.0747    3.5061 C   0  0  0  0  0  0  0  0  0  0  0  0
   46.8204  -45.7803    3.6236 C   0  0  0  0  0  0  0  0  0  0  0  0
   45.5436  -45.7580    2.8986 N   0  0  0  0  0  0  0  0  0  0  0  0
   44.3721  -45.4087    3.4525 C   0  0  0  0  0  0  0  0  0  0  0  0
   44.0988  -44.9645    4.8062 C   0  0  0  0  0  0  0  0  0  0  0  0
   43.2449  -44.0987    5.0415 O   0  0  0  0  0  0  0  0  0  0  0  0
   44.8131  -45.5218    5.8850 N   0  0  0  0  0  0  0  0  0  0  0  0
   44.5839  -45.1137    7.2514 C   0  0  0  0  0  0  0  0  0  0  0  0
   43.2235  -45.5832    7.6424 C   0  0  0  0  0  0  0  0  0  0  0  0
   42.4114  -46.4675    7.0410 N   0  0  0  0  0  0  0  0  0  0  0  0
   41.2643  -46.6051    7.7275 C   0  0  0  0  0  0  0  0  0  0  0  0
   40.1160  -47.3812    7.5328 C   0  0  0  0  0  0  0  0  0  0  0  0
   39.0709  -47.3105    8.4290 C   0  0  0  0  0  0  0  0  0  0  0  0
   39.1779  -46.4694    9.5095 C   0  0  0  0  0  0  0  0  0  0  0  0
   40.2989  -45.6968    9.7203 C   0  0  0  0  0  0  0  0  0  0  0  0
   41.3496  -45.7713    8.8145 C   0  0  0  0  0  0  0  0  0  0  0  0
   42.5456  -45.1632    8.7406 N   0  0  0  0  0  0  0  0  0  0  0  0
   43.3888  -45.5200    2.4841 C   0  0  0  0  0  0  0  0  0  0  0  0
   44.0477  -45.9487    1.3467 C   0  0  0  0  0  0  0  0  0  0  0  0
   43.8823  -46.3838   -0.2965 S   0  0  0  0  0  0  0  0  0  0  0  0
   45.5081  -46.7506   -0.6501 C   0  0  0  0  0  0  0  0  0  0  0  0
   46.1417  -46.5199    0.5402 C   0  0  0  0  0  0  0  0  0  0  0  0
   45.3798  -46.1021    1.5804 C   0  0  0  0  0  0  0  0  0  0  0  0
  1  2  1  0  0  0  0
  2  3  1  0  0  0  0
  3  4  1  0  0  0  0
  4  5  1  0  0  0  0
  4 18  2  0  0  0  0
  5  6  2  0  0  0  0
  5  7  1  0  0  0  0
  7  8  1  0  0  0  0
  8  9  1  0  0  0  0
  9 10  2  0  0  0  0
 10 11  1  0  0  0  0
 11 12  2  0  0  0  0
 12 13  1  0  0  0  0
 13 14  2  0  0  0  0
 14 15  1  0  0  0  0
 15 16  2  0  0  0  0
 16 17  1  0  0  0  0
 16 11  1  0  0  0  0
 17  9  1  0  0  0  0
 18 19  1  0  0  0  0
 19 20  1  0  0  0  0
 20 21  1  0  0  0  0
 21 22  2  0  0  0  0
 22 23  1  0  0  0  0
 23  3  1  0  0  0  0
 23 19  2  0  0  0  0
M  END
>  <CHROM.1>
127.44117521,143.64518614,68.24850730,14.11172857,43.50296361,-45.98170914
4.77699675,-1.03767017,0.20472412,1.43991496

>  <Name>
design_16

>  <RI>
0

>  <Rbt.Current_Directory>
/home/ziqiaoxu/icml18-jtnn/VAEdesign

>  <Rbt.Executable>
rbdock ($Id: //depot/dev/client3/rdock/2013.1/src/exe/rbdock.cxx#4 $)

>  <Rbt.Library>
libRbt.so (2013.1, Build901 2013/11/27)

>  <Rbt.Parameter_File>
/export/apps/rDock/src/rDock_2013.1_src//data/scripts/dock.prm

>  <Rbt.Receptor>
/home/ziqiaoxu/icml18-jtnn/VAEdesign/targets/RdRp-SARS-CoV-2/pocket_docking.prm

>  <SCORE>
-18.5084

>  <SCORE.INTER>
-20.6881

>  <SCORE.INTER.CONST>
1

>  <SCORE.INTER.POLAR>
-0.729963

>  <SCORE.INTER.REPUL>
0

>  <SCORE.INTER.ROT>
4

>  <SCORE.INTER.VDW>
-27.6062

>  <SCORE.INTER.norm>
-0.899483

>  <SCORE.INTRA>
2.17973

>  <SCORE.INTRA.DIHEDRAL>
3.92054

>  <SCORE.INTRA.DIHEDRAL.0>
4.91081

>  <SCORE.INTRA.POLAR>
0

>  <SCORE.INTRA.POLAR.0>
0

>  <SCORE.INTRA.REPUL>
0

>  <SCORE.INTRA.REPUL.0>
0

>  <SCORE.INTRA.VDW>
0.219458

>  <SCORE.INTRA.VDW.0>
-1.44865

>  <SCORE.INTRA.norm>
0.0947708

>  <SCORE.RESTR>
0

>  <SCORE.RESTR.CAVITY>
0

>  <SCORE.RESTR.norm>
0

>  <SCORE.SYSTEM>
0

>  <SCORE.SYSTEM.CONST>
0

>  <SCORE.SYSTEM.DIHEDRAL>
0

>  <SCORE.SYSTEM.norm>
0

>  <SCORE.heavy>
23

>  <SCORE.norm>
-0.804712

$$$$
design_15
 OpenBabel05252019093D

 23 25  0  0  0  0  0  0  0  0999 V2000
   39.0059  -42.7762    6.3349 C   0  0  0  0  0  0  0  0  0  0  0  0
   37.9777  -43.8282    6.0449 C   0  0  0  0  0  0  0  0  0  0  0  0
   36.6973  -43.4318    5.7385 C   0  0  0  0  0  0  0  0  0  0  0  0
   35.7359  -44.3682    5.4689 C   0  0  0  0  0  0  0  0  0  0  0  0
   36.0697  -45.7256    5.5084 C   0  0  0  0  0  0  0  0  0  0  0  0
   37.3255  -46.1486    5.8077 C   0  0  0  0  0  0  0  0  0  0  0  0
   37.7178  -47.4858    5.8666 N   0  0  0  0  0  0  0  0  0  0  0  0
   39.2115  -48.0268    6.4490 S   0  0  0  0  0  0  0  0  0  0  0  0
   40.1741  -48.1376    5.2848 O   0  0  0  0  0  0  0  0  0  0  0  0
   39.0520  -49.4462    6.9918 O   0  0  0  0  0  0  0  0  0  0  0  0
   39.9572  -47.0055    7.6362 C   0  0  0  0  0  0  0  0  0  0  0  0
   41.2629  -46.5905    7.4330 C   0  0  0  0  0  0  0  0  0  0  0  0
   41.9230  -45.7694    8.3270 C   0  0  0  0  0  0  0  0  0  0  0  0
   41.2887  -45.3301    9.4706 C   0  0  0  0  0  0  0  0  0  0  0  0
   39.9864  -45.7457    9.6705 C   0  0  0  0  0  0  0  0  0  0  0  0
   39.3260  -46.5689    8.7732 C   0  0  0  0  0  0  0  0  0  0  0  0
   37.6760  -47.0680    9.0711 Cl  0  0  0  0  0  0  0  0  0  0  0  0
   41.9526  -44.4803   10.4090 N   0  0  0  0  0  0  0  0  0  0  0  0
   43.2949  -44.0793   10.1586 C   0  0  0  0  0  0  0  0  0  0  0  0
   44.0028  -43.5582   11.0807 O   0  0  0  0  0  0  0  0  0  0  0  0
   43.8304  -44.2885    8.8012 C   0  0  0  0  0  0  0  0  0  0  0  0
   43.2330  -45.3536    8.1224 O   0  0  0  0  0  0  0  0  0  0  0  0
   38.2852  -45.1703    6.0783 C   0  0  0  0  0  0  0  0  0  0  0  0
  1  2  1  0  0  0  0
  2  3  2  0  0  0  0
  3  4  1  0  0  0  0
  4  5  2  0  0  0  0
  5  6  1  0  0  0  0
  6  7  1  0  0  0  0
  6 23  2  0  0  0  0
  7  8  1  0  0  0  0
  8  9  2  0  0  0  0
  8 10  2  0  0  0  0
  8 11  1  0  0  0  0
 11 12  2  0  0  0  0
 12 13  1  0  0  0  0
 13 14  2  0  0  0  0
 14 15  1  0  0  0  0
 14 18  1  0  0  0  0
 15 16  2  0  0  0  0
 16 17  1  0  0  0  0
 16 11  1  0  0  0  0
 18 19  1  0  0  0  0
 19 20  2  0  0  0  0
 19 21  1  0  0  0  0
 21 22  1  0  0  0  0
 22 13  1  0  0  0  0
 23  2  1  0  0  0  0
M  END
>  <CHROM.1>
-170.86657636,-92.52371803,-127.30888464,39.67611967,-45.90423623,7.62563867
2.84846227,0.56084261,-3.06898064

>  <Name>
design_15

>  <RI>
0

>  <Rbt.Current_Directory>
/home/ziqiaoxu/icml18-jtnn/VAEdesign

>  <Rbt.Executable>
rbdock ($Id: //depot/dev/client3/rdock/2013.1/src/exe/rbdock.cxx#4 $)

>  <Rbt.Library>
libRbt.so (2013.1, Build901 2013/11/27)

>  <Rbt.Parameter_File>
/export/apps/rDock/src/rDock_2013.1_src//data/scripts/dock.prm

>  <Rbt.Receptor>
/home/ziqiaoxu/icml18-jtnn/VAEdesign/targets/RdRp-SARS-CoV-2/pocket_docking.prm

>  <SCORE>
-22.9966

>  <SCORE.INTER>
-19.473

>  <SCORE.INTER.CONST>
1

>  <SCORE.INTER.POLAR>
-0.0819854

>  <SCORE.INTER.REPUL>
0

>  <SCORE.INTER.ROT>
3

>  <SCORE.INTER.VDW>
-27.5942

>  <SCORE.INTER.norm>
-0.846652

>  <SCORE.INTRA>
-3.52356

>  <SCORE.INTRA.DIHEDRAL>
-6.3439

>  <SCORE.INTRA.DIHEDRAL.0>
9.06581

>  <SCORE.INTRA.POLAR>
0

>  <SCORE.INTRA.POLAR.0>
0

>  <SCORE.INTRA.REPUL>
0

>  <SCORE.INTRA.REPUL.0>
0

>  <SCORE.INTRA.VDW>
-0.351615

>  <SCORE.INTRA.VDW.0>
-2.72799

>  <SCORE.INTRA.norm>
-0.153198

>  <SCORE.RESTR>
0

>  <SCORE.RESTR.CAVITY>
0

>  <SCORE.RESTR.norm>
0

>  <SCORE.SYSTEM>
0

>  <SCORE.SYSTEM.CONST>
0

>  <SCORE.SYSTEM.DIHEDRAL>
0

>  <SCORE.SYSTEM.norm>
0

>  <SCORE.heavy>
23

>  <SCORE.norm>
-0.999851

$$$$
design_1
 OpenBabel05252019093D

 26 28  0  0  0  0  0  0  0  0999 V2000
   43.0904  -37.3000    1.7018 C   0  0  0  0  0  0  0  0  0  0  0  0
   43.4328  -37.9955    0.5509 O   0  0  0  0  0  0  0  0  0  0  0  0
   43.4417  -39.3590    0.3866 C   0  0  0  0  0  0  0  0  0  0  0  0
   44.4535  -39.9511   -0.3491 C   0  0  0  0  0  0  0  0  0  0  0  0
   44.4487  -41.3288   -0.5076 C   0  0  0  0  0  0  0  0  0  0  0  0
   43.4769  -42.1163    0.0406 C   0  0  0  0  0  0  0  0  0  0  0  0
   42.4494  -41.5150    0.7870 C   0  0  0  0  0  0  0  0  0  0  0  0
   41.4752  -42.3460    1.3192 N   0  0  0  0  0  0  0  0  0  0  0  0
   41.6262  -43.6355    1.7993 C   0  0  0  0  0  0  0  0  0  0  0  0
   42.7363  -44.2162    1.7845 O   0  0  0  0  0  0  0  0  0  0  0  0
   40.4932  -44.4390    2.3765 C   0  0  0  0  0  0  0  0  0  0  0  0
   41.0161  -45.3446    3.3382 N   0  0  0  0  0  0  0  0  0  0  0  0
   41.4723  -45.0094    4.6546 C   0  0  0  0  0  0  0  0  0  0  0  0
   41.4269  -43.8414    5.0327 O   0  0  0  0  0  0  0  0  0  0  0  0
   42.0062  -46.1141    5.5276 C   0  0  0  0  0  0  0  0  0  0  0  0
   40.9590  -46.6509    6.3986 C   0  0  0  0  0  0  0  0  0  0  0  0
   40.1363  -47.6496    5.8703 C   0  0  0  0  0  0  0  0  0  0  0  0
   39.1762  -48.2711    6.6240 C   0  0  0  0  0  0  0  0  0  0  0  0
   39.0096  -47.9073    7.9371 C   0  0  0  0  0  0  0  0  0  0  0  0
   39.8012  -46.9261    8.4891 C   0  0  0  0  0  0  0  0  0  0  0  0
   39.6182  -46.5611    9.7830 C   0  0  0  0  0  0  0  0  0  0  0  0
   40.3733  -45.5723   10.3750 C   0  0  0  0  0  0  0  0  0  0  0  0
   41.3394  -44.9500    9.6044 C   0  0  0  0  0  0  0  0  0  0  0  0
   41.5205  -45.3216    8.2988 C   0  0  0  0  0  0  0  0  0  0  0  0
   40.7795  -46.3015    7.7002 C   0  0  0  0  0  0  0  0  0  0  0  0
   42.4434  -40.1610    0.9505 C   0  0  0  0  0  0  0  0  0  0  0  0
  1  2  1  0  0  0  0
  2  3  1  0  0  0  0
  3  4  2  0  0  0  0
  4  5  1  0  0  0  0
  5  6  2  0  0  0  0
  6  7  1  0  0  0  0
  7  8  1  0  0  0  0
  7 26  2  0  0  0  0
  8  9  1  0  0  0  0
  9 10  2  0  0  0  0
  9 11  1  0  0  0  0
 11 12  1  0  0  0  0
 12 13  1  0  0  0  0
 13 14  2  0  0  0  0
 13 15  1  0  0  0  0
 15 16  1  0  0  0  0
 16 17  2  0  0  0  0
 17 18  1  0  0  0  0
 18 19  2  0  0  0  0
 19 20  1  0  0  0  0
 20 21  2  0  0  0  0
 21 22  1  0  0  0  0
 22 23  2  0  0  0  0
 23 24  1  0  0  0  0
 24 25  2  0  0  0  0
 25 16  1  0  0  0  0
 25 20  1  0  0  0  0
 26  3  1  0  0  0  0
M  END
>  <CHROM.1>
-140.86025479,34.36862272,-150.92240511,74.61344748,-94.34965372,85.24737569
41.64816707,-43.79363300,4.16245298,-0.40698913,1.25145263,1.14029014

>  <Name>
design_1

>  <RI>
0

>  <Rbt.Current_Directory>
/home/ziqiaoxu/icml18-jtnn/VAEdesign

>  <Rbt.Executable>
rbdock ($Id: //depot/dev/client3/rdock/2013.1/src/exe/rbdock.cxx#4 $)

>  <Rbt.Library>
libRbt.so (2013.1, Build901 2013/11/27)

>  <Rbt.Parameter_File>
/export/apps/rDock/src/rDock_2013.1_src//data/scripts/dock.prm

>  <Rbt.Receptor>
/home/ziqiaoxu/icml18-jtnn/VAEdesign/targets/RdRp-SARS-CoV-2/pocket_docking.prm

>  <SCORE>
-23.0896

>  <SCORE.INTER>
-23.7636

>  <SCORE.INTER.CONST>
1

>  <SCORE.INTER.POLAR>
-2.23188

>  <SCORE.INTER.REPUL>
0

>  <SCORE.INTER.ROT>
6

>  <SCORE.INTER.VDW>
-27.5753

>  <SCORE.INTER.norm>
-0.913987

>  <SCORE.INTRA>
0.674056

>  <SCORE.INTRA.DIHEDRAL>
5.0244

>  <SCORE.INTRA.DIHEDRAL.0>
5.52403

>  <SCORE.INTRA.POLAR>
0

>  <SCORE.INTRA.POLAR.0>
0

>  <SCORE.INTRA.REPUL>
0

>  <SCORE.INTRA.REPUL.0>
0

>  <SCORE.INTRA.VDW>
-1.83815

>  <SCORE.INTRA.VDW.0>
0.596717

>  <SCORE.INTRA.norm>
0.0259252

>  <SCORE.RESTR>
0

>  <SCORE.RESTR.CAVITY>
0

>  <SCORE.RESTR.norm>
0

>  <SCORE.SYSTEM>
0

>  <SCORE.SYSTEM.CONST>
0

>  <SCORE.SYSTEM.DIHEDRAL>
0

>  <SCORE.SYSTEM.norm>
0

>  <SCORE.heavy>
26

>  <SCORE.norm>
-0.888061

$$$$
design_5
 OpenBabel05252019093D

 24 26  0  0  0  0  0  0  0  0999 V2000
   40.9067  -35.3934    3.5226 N   0  0  0  0  0  0  0  0  0  0  0  0
   39.9848  -36.4814    3.6141 C   0  0  0  0  0  0  0  0  0  0  0  0
   39.2860  -36.7477    2.6192 O   0  0  0  0  0  0  0  0  0  0  0  0
   39.9041  -37.2231    4.8650 C   0  0  0  0  0  0  0  0  0  0  0  0
   40.2809  -36.7075    6.0634 C   0  0  0  0  0  0  0  0  0  0  0  0
   40.2001  -37.3793    7.2725 C   0  0  0  0  0  0  0  0  0  0  0  0
   39.6899  -38.6806    7.2276 C   0  0  0  0  0  0  0  0  0  0  0  0
   39.6285  -39.3883    8.4565 N   0  0  0  0  0  0  0  0  0  0  0  0
   39.5443  -40.7914    8.5682 C   0  0  0  0  0  0  0  0  0  0  0  0
   39.4827  -41.5163    7.5378 O   0  0  0  0  0  0  0  0  0  0  0  0
   39.5291  -41.3749    9.8749 N   0  0  0  0  0  0  0  0  0  0  0  0
   39.4200  -42.7950    9.9892 C   0  0  0  0  0  0  0  0  0  0  0  0
   40.6517  -43.5526    9.4890 C   0  0  0  0  0  0  0  0  0  0  0  0
   40.2140  -44.8966    8.9931 C   0  0  0  0  0  0  0  0  0  0  0  0
   40.4219  -45.3128    7.7609 N   0  0  0  0  0  0  0  0  0  0  0  0
   40.0360  -46.5129    7.4104 C   0  0  0  0  0  0  0  0  0  0  0  0
   40.1859  -47.1092    6.1368 C   0  0  0  0  0  0  0  0  0  0  0  0
   39.7448  -48.3659    5.9001 C   0  0  0  0  0  0  0  0  0  0  0  0
   39.1176  -49.1705    6.8654 C   0  0  0  0  0  0  0  0  0  0  0  0
   38.9764  -48.5851    8.0959 C   0  0  0  0  0  0  0  0  0  0  0  0
   39.4253  -47.2876    8.3606 C   0  0  0  0  0  0  0  0  0  0  0  0
   39.4482  -46.2116    9.7193 S   0  0  0  0  0  0  0  0  0  0  0  0
   39.2952  -39.2470    6.0329 C   0  0  0  0  0  0  0  0  0  0  0  0
   39.4002  -38.5300    4.8687 C   0  0  0  0  0  0  0  0  0  0  0  0
  1  2  1  0  0  0  0
  2  3  2  0  0  0  0
  2  4  1  0  0  0  0
  4  5  2  0  0  0  0
  5  6  1  0  0  0  0
  6  7  2  0  0  0  0
  7  8  1  0  0  0  0
  7 23  1  0  0  0  0
  8  9  1  0  0  0  0
  9 10  2  0  0  0  0
  9 11  1  0  0  0  0
 11 12  1  0  0  0  0
 12 13  1  0  0  0  0
 13 14  1  0  0  0  0
 14 15  2  0  0  0  0
 15 16  1  0  0  0  0
 16 17  2  0  0  0  0
 17 18  1  0  0  0  0
 18 19  2  0  0  0  0
 19 20  1  0  0  0  0
 20 21  2  0  0  0  0
 21 22  1  0  0  0  0
 21 16  1  0  0  0  0
 22 14  1  0  0  0  0
 23 24  2  0  0  0  0
 24  4  1  0  0  0  0
M  END
>  <CHROM.1>
23.22148132,-159.66017256,68.13765836,-151.09067656,121.58258340,39.76870891
-42.17333050,7.18402130,-0.00181574,-1.53905428,-1.87711208

>  <Name>
design_5

>  <RI>
0

>  <Rbt.Current_Directory>
/home/ziqiaoxu/icml18-jtnn/VAEdesign

>  <Rbt.Executable>
rbdock ($Id: //depot/dev/client3/rdock/2013.1/src/exe/rbdock.cxx#4 $)

>  <Rbt.Library>
libRbt.so (2013.1, Build901 2013/11/27)

>  <Rbt.Parameter_File>
/export/apps/rDock/src/rDock_2013.1_src//data/scripts/dock.prm

>  <Rbt.Receptor>
/home/ziqiaoxu/icml18-jtnn/VAEdesign/targets/RdRp-SARS-CoV-2/pocket_docking.prm

>  <SCORE>
-25.4926

>  <SCORE.INTER>
-22.8162

>  <SCORE.INTER.CONST>
1

>  <SCORE.INTER.POLAR>
-1.67361

>  <SCORE.INTER.REPUL>
0

>  <SCORE.INTER.ROT>
5

>  <SCORE.INTER.VDW>
-27.526

>  <SCORE.INTER.norm>
-0.950677

>  <SCORE.INTRA>
-3.23259

>  <SCORE.INTRA.DIHEDRAL>
-8.09043

>  <SCORE.INTRA.DIHEDRAL.0>
16.6049

>  <SCORE.INTRA.POLAR>
0

>  <SCORE.INTRA.POLAR.0>
0

>  <SCORE.INTRA.REPUL>
0

>  <SCORE.INTRA.REPUL.0>
0

>  <SCORE.INTRA.VDW>
0.812629

>  <SCORE.INTRA.VDW.0>
-1.39832

>  <SCORE.INTRA.norm>
-0.134691

>  <SCORE.RESTR>
0.55623

>  <SCORE.RESTR.CAVITY>
0.55623

>  <SCORE.RESTR.norm>
0.0231763

>  <SCORE.SYSTEM>
0

>  <SCORE.SYSTEM.CONST>
0

>  <SCORE.SYSTEM.DIHEDRAL>
0

>  <SCORE.SYSTEM.norm>
0

>  <SCORE.heavy>
24

>  <SCORE.norm>
-1.06219

$$$$
design_10
 OpenBabel05252019093D

 25 27  0  0  0  0  0  0  0  0999 V2000
   41.4987  -39.2998    2.6113 C   0  0  0  0  0  0  0  0  0  0  0  0
   40.6689  -38.2174    3.0746 N   0  0  0  0  0  0  0  0  0  0  0  0
   40.3369  -37.1521    2.2681 C   0  0  0  0  0  0  0  0  0  0  0  0
   39.5714  -36.3086    3.0164 C   0  0  0  0  0  0  0  0  0  0  0  0
   39.4578  -36.8625    4.2233 N   0  0  0  0  0  0  0  0  0  0  0  0
   40.1428  -38.0613    4.2695 C   0  0  0  0  0  0  0  0  0  0  0  0
   40.2015  -38.8630    5.4786 C   0  0  0  0  0  0  0  0  0  0  0  0
   39.9281  -38.2466    6.7148 C   0  0  0  0  0  0  0  0  0  0  0  0
   39.9356  -38.9202    7.9119 C   0  0  0  0  0  0  0  0  0  0  0  0
   40.2187  -40.2640    7.9497 C   0  0  0  0  0  0  0  0  0  0  0  0
   40.2382  -41.0756    9.0909 N   0  0  0  0  0  0  0  0  0  0  0  0
   40.0224  -42.4540    9.1043 C   0  0  0  0  0  0  0  0  0  0  0  0
   39.7908  -43.1188    8.0738 O   0  0  0  0  0  0  0  0  0  0  0  0
   40.0546  -43.2449   10.3823 C   0  0  0  0  0  0  0  0  0  0  0  0
   41.0582  -44.3443   10.2932 C   0  0  0  0  0  0  0  0  0  0  0  0
   40.6094  -45.4559    9.4154 C   0  0  0  0  0  0  0  0  0  0  0  0
   41.3287  -45.8133    8.2905 C   0  0  0  0  0  0  0  0  0  0  0  0
   40.9198  -46.8439    7.4697 C   0  0  0  0  0  0  0  0  0  0  0  0
   39.7741  -47.5687    7.7298 C   0  0  0  0  0  0  0  0  0  0  0  0
   39.3415  -48.6421    6.8816 C   0  0  0  0  0  0  0  0  0  0  0  0
   38.9971  -49.5150    6.1917 N   0  0  0  0  0  0  0  0  0  0  0  0
   39.0550  -47.2128    8.8526 C   0  0  0  0  0  0  0  0  0  0  0  0
   39.4611  -46.1785    9.6805 C   0  0  0  0  0  0  0  0  0  0  0  0
   40.4961  -40.9083    6.7307 C   0  0  0  0  0  0  0  0  0  0  0  0
   40.4784  -40.1971    5.5524 C   0  0  0  0  0  0  0  0  0  0  0  0
  1  2  1  0  0  0  0
  2  3  1  0  0  0  0
  3  4  2  0  0  0  0
  4  5  1  0  0  0  0
  5  6  2  0  0  0  0
  6  7  1  0  0  0  0
  6  2  1  0  0  0  0
  7  8  2  0  0  0  0
  8  9  1  0  0  0  0
  9 10  2  0  0  0  0
 10 11  1  0  0  0  0
 10 24  1  0  0  0  0
 11 12  1  0  0  0  0
 12 13  2  0  0  0  0
 12 14  1  0  0  0  0
 14 15  1  0  0  0  0
 15 16  1  0  0  0  0
 16 17  2  0  0  0  0
 17 18  1  0  0  0  0
 18 19  2  0  0  0  0
 19 20  1  0  0  0  0
 19 22  1  0  0  0  0
 20 21  3  0  0  0  0
 22 23  2  0  0  0  0
 23 16  1  0  0  0  0
 24 25  2  0  0  0  0
 25  7  1  0  0  0  0
M  END
>  <CHROM.1>
158.68866739,154.28627780,-123.44366380,-73.19991129,119.66114530,40.15039634
-42.15900182,6.84327322,0.80618073,-1.52714436,-1.20834130

>  <Name>
design_10

>  <RI>
0

>  <Rbt.Current_Directory>
/home/ziqiaoxu/icml18-jtnn/VAEdesign

>  <Rbt.Executable>
rbdock ($Id: //depot/dev/client3/rdock/2013.1/src/exe/rbdock.cxx#4 $)

>  <Rbt.Library>
libRbt.so (2013.1, Build901 2013/11/27)

>  <Rbt.Parameter_File>
/export/apps/rDock/src/rDock_2013.1_src//data/scripts/dock.prm

>  <Rbt.Receptor>
/home/ziqiaoxu/icml18-jtnn/VAEdesign/targets/RdRp-SARS-CoV-2/pocket_docking.prm

>  <SCORE>
-16.7437

>  <SCORE.INTER>
-17.7444

>  <SCORE.INTER.CONST>
1

>  <SCORE.INTER.POLAR>
-0.321778

>  <SCORE.INTER.REPUL>
0.0947978

>  <SCORE.INTER.ROT>
5

>  <SCORE.INTER.VDW>
-27.5244

>  <SCORE.INTER.norm>
-0.709778

>  <SCORE.INTRA>
0.991943

>  <SCORE.INTRA.DIHEDRAL>
4.6516

>  <SCORE.INTRA.DIHEDRAL.0>
3.40136

>  <SCORE.INTRA.POLAR>
0

>  <SCORE.INTRA.POLAR.0>
0

>  <SCORE.INTRA.REPUL>
0

>  <SCORE.INTRA.REPUL.0>
0

>  <SCORE.INTRA.VDW>
-1.33386

>  <SCORE.INTRA.VDW.0>
1.15031

>  <SCORE.INTRA.norm>
0.0396777

>  <SCORE.RESTR>
0.00883405

>  <SCORE.RESTR.CAVITY>
0.00883405

>  <SCORE.RESTR.norm>
0.000353362

>  <SCORE.SYSTEM>
0

>  <SCORE.SYSTEM.CONST>
0

>  <SCORE.SYSTEM.DIHEDRAL>
0

>  <SCORE.SYSTEM.norm>
0

>  <SCORE.heavy>
25

>  <SCORE.norm>
-0.669747

$$$$
design_4
 OpenBabel05252019093D

 28 31  0  0  0  0  0  0  0  0999 V2000
   39.8402  -36.4967    4.3424 C   0  0  0  0  0  0  0  0  0  0  0  0
   40.8808  -37.5119    4.3098 N   0  0  0  0  0  0  0  0  0  0  0  0
   41.0750  -38.5493    5.1270 C   0  0  0  0  0  0  0  0  0  0  0  0
   40.2442  -38.9021    6.2827 C   0  0  0  0  0  0  0  0  0  0  0  0
   40.9489  -38.6919    7.6033 C   0  0  0  0  0  0  0  0  0  0  0  0
   40.2850  -39.3990    8.6779 N   0  0  0  0  0  0  0  0  0  0  0  0
   40.2467  -40.8151    8.7298 C   0  0  0  0  0  0  0  0  0  0  0  0
   40.7873  -41.5348    7.8448 O   0  0  0  0  0  0  0  0  0  0  0  0
   39.5858  -41.4648    9.7998 N   0  0  0  0  0  0  0  0  0  0  0  0
   39.4754  -42.8929    9.9536 C   0  0  0  0  0  0  0  0  0  0  0  0
   40.4888  -43.4657   10.8983 C   0  0  0  0  0  0  0  0  0  0  0  0
   41.5354  -44.2924   10.1474 C   0  0  0  0  0  0  0  0  0  0  0  0
   40.8944  -45.3514    9.3428 C   0  0  0  0  0  0  0  0  0  0  0  0
   41.3418  -45.7704    8.1523 N   0  0  0  0  0  0  0  0  0  0  0  0
   40.5564  -46.7299    7.6813 C   0  0  0  0  0  0  0  0  0  0  0  0
   40.5422  -47.5096    6.5209 C   0  0  0  0  0  0  0  0  0  0  0  0
   39.5744  -48.4609    6.2896 C   0  0  0  0  0  0  0  0  0  0  0  0
   38.5685  -48.6732    7.2224 C   0  0  0  0  0  0  0  0  0  0  0  0
   38.5862  -47.9024    8.3650 C   0  0  0  0  0  0  0  0  0  0  0  0
   39.5615  -46.9397    8.6041 C   0  0  0  0  0  0  0  0  0  0  0  0
   39.7966  -46.0806    9.6092 N   0  0  0  0  0  0  0  0  0  0  0  0
   42.1585  -39.2237    4.7216 N   0  0  0  0  0  0  0  0  0  0  0  0
   42.6642  -38.6142    3.6349 C   0  0  0  0  0  0  0  0  0  0  0  0
   43.7697  -38.9044    2.8347 C   0  0  0  0  0  0  0  0  0  0  0  0
   44.0481  -38.0853    1.7669 C   0  0  0  0  0  0  0  0  0  0  0  0
   43.2190  -37.0096    1.5338 C   0  0  0  0  0  0  0  0  0  0  0  0
   42.1299  -36.7022    2.3012 C   0  0  0  0  0  0  0  0  0  0  0  0
   41.8429  -37.5347    3.3904 C   0  0  0  0  0  0  0  0  0  0  0  0
  1  2  1  0  0  0  0
  2  3  1  0  0  0  0
  3  4  1  0  0  0  0
  3 22  2  0  0  0  0
  4  5  1  0  0  0  0
  5  6  1  0  0  0  0
  6  7  1  0  0  0  0
  7  8  2  0  0  0  0
  7  9  1  0  0  0  0
  9 10  1  0  0  0  0
 10 11  1  0  0  0  0
 11 12  1  0  0  0  0
 12 13  1  0  0  0  0
 13 14  2  0  0  0  0
 14 15  1  0  0  0  0
 15 16  2  0  0  0  0
 16 17  1  0  0  0  0
 17 18  2  0  0  0  0
 18 19  1  0  0  0  0
 19 20  2  0  0  0  0
 20 21  1  0  0  0  0
 20 15  1  0  0  0  0
 21 13  1  0  0  0  0
 22 23  1  0  0  0  0
 23 24  2  0  0  0  0
 24 25  1  0  0  0  0
 25 26  2  0  0  0  0
 26 27  1  0  0  0  0
 27 28  2  0  0  0  0
 28  2  1  0  0  0  0
 28 23  1  0  0  0  0
M  END
>  <CHROM.1>
-110.84434816,-163.03624968,66.66021244,98.44905949,-109.69138883,-55.66260021
145.01494111,40.85237636,-41.86705945,6.70293348,0.82738937,1.25488875,0.20404672

>  <Name>
design_4

>  <RI>
0

>  <Rbt.Current_Directory>
/home/ziqiaoxu/icml18-jtnn/VAEdesign

>  <Rbt.Executable>
rbdock ($Id: //depot/dev/client3/rdock/2013.1/src/exe/rbdock.cxx#4 $)

>  <Rbt.Library>
libRbt.so (2013.1, Build901 2013/11/27)

>  <Rbt.Parameter_File>
/export/apps/rDock/src/rDock_2013.1_src//data/scripts/dock.prm

>  <Rbt.Receptor>
/home/ziqiaoxu/icml18-jtnn/VAEdesign/targets/RdRp-SARS-CoV-2/pocket_docking.prm

>  <SCORE>
-22.5075

>  <SCORE.INTER>
-25.5413

>  <SCORE.INTER.CONST>
1

>  <SCORE.INTER.POLAR>
-3.06765

>  <SCORE.INTER.REPUL>
0

>  <SCORE.INTER.ROT>
7

>  <SCORE.INTER.VDW>
-27.5113

>  <SCORE.INTER.norm>
-0.91219

>  <SCORE.INTRA>
3.03387

>  <SCORE.INTRA.DIHEDRAL>
6.21048

>  <SCORE.INTRA.DIHEDRAL.0>
5.0992

>  <SCORE.INTRA.POLAR>
0

>  <SCORE.INTRA.POLAR.0>
0

>  <SCORE.INTRA.REPUL>
0

>  <SCORE.INTRA.REPUL.0>
0

>  <SCORE.INTRA.VDW>
-0.0713747

>  <SCORE.INTRA.VDW.0>
-1.27863

>  <SCORE.INTRA.norm>
0.108352

>  <SCORE.RESTR>
0

>  <SCORE.RESTR.CAVITY>
0

>  <SCORE.RESTR.norm>
0

>  <SCORE.SYSTEM>
0

>  <SCORE.SYSTEM.CONST>
0

>  <SCORE.SYSTEM.DIHEDRAL>
0

>  <SCORE.SYSTEM.norm>
0

>  <SCORE.heavy>
28

>  <SCORE.norm>
-0.803838

$$$$
design_3
 OpenBabel05252019093D

 26 27  0  0  0  0  0  0  0  0999 V2000
   45.4551  -38.3206   -2.0039 N   0  0  0  0  0  0  0  0  0  0  0  0
   44.7038  -38.2995   -0.7968 C   0  0  0  0  0  0  0  0  0  0  0  0
   44.5877  -37.1989   -0.2047 O   0  0  0  0  0  0  0  0  0  0  0  0
   44.0954  -39.5143   -0.2748 C   0  0  0  0  0  0  0  0  0  0  0  0
   44.6130  -40.7565   -0.5849 C   0  0  0  0  0  0  0  0  0  0  0  0
   44.0553  -41.9173   -0.1056 C   0  0  0  0  0  0  0  0  0  0  0  0
   42.9445  -41.8838    0.7125 C   0  0  0  0  0  0  0  0  0  0  0  0
   42.4191  -43.1558    1.1762 C   0  0  0  0  0  0  0  0  0  0  0  0
   43.1351  -44.2184    1.1201 O   0  0  0  0  0  0  0  0  0  0  0  0
   41.1177  -43.2350    1.6915 N   0  0  0  0  0  0  0  0  0  0  0  0
   40.5390  -44.4950    2.1737 C   0  0  0  0  0  0  0  0  0  0  0  0
   41.2438  -44.9812    3.3608 C   0  0  0  0  0  0  0  0  0  0  0  0
   41.8418  -45.4032    4.3410 C   0  0  0  0  0  0  0  0  0  0  0  0
   42.5413  -45.9292    5.5098 C   0  0  0  0  0  0  0  0  0  0  0  0
   41.6443  -46.1122    6.5422 O   0  0  0  0  0  0  0  0  0  0  0  0
   40.6454  -46.9953    6.7150 C   0  0  0  0  0  0  0  0  0  0  0  0
   40.2209  -47.8211    5.7031 C   0  0  0  0  0  0  0  0  0  0  0  0
   39.1756  -48.7340    5.9095 C   0  0  0  0  0  0  0  0  0  0  0  0
   38.5621  -48.8107    7.1359 C   0  0  0  0  0  0  0  0  0  0  0  0
   38.9794  -47.9878    8.1573 C   0  0  0  0  0  0  0  0  0  0  0  0
   40.0133  -47.0925    7.9351 C   0  0  0  0  0  0  0  0  0  0  0  0
   40.4414  -46.2400    9.0087 C   0  0  0  0  0  0  0  0  0  0  0  0
   39.9895  -46.3627   10.3513 N   0  0  0  0  0  0  0  0  0  0  0  0
   41.2720  -45.3039    8.8038 O   0  0  0  0  0  0  0  0  0  0  0  0
   42.4200  -40.6574    1.0289 C   0  0  0  0  0  0  0  0  0  0  0  0
   42.9891  -39.4832    0.5404 C   0  0  0  0  0  0  0  0  0  0  0  0
  1  2  1  0  0  0  0
  2  3  2  0  0  0  0
  2  4  1  0  0  0  0
  4  5  2  0  0  0  0
  5  6  1  0  0  0  0
  6  7  2  0  0  0  0
  7  8  1  0  0  0  0
  7 25  1  0  0  0  0
  8  9  2  0  0  0  0
  8 10  1  0  0  0  0
 10 11  1  0  0  0  0
 11 12  1  0  0  0  0
 12 13  3  0  0  0  0
 13 14  1  0  0  0  0
 14 15  1  0  0  0  0
 15 16  1  0  0  0  0
 16 17  2  0  0  0  0
 17 18  1  0  0  0  0
 18 19  2  0  0  0  0
 19 20  1  0  0  0  0
 20 21  2  0  0  0  0
 21 22  1  0  0  0  0
 21 16  1  0  0  0  0
 22 23  1  0  0  0  0
 22 24  2  0  0  0  0
 25 26  2  0  0  0  0
 26  4  1  0  0  0  0
M  END
>  <CHROM.1>
25.39446148,17.34741697,65.73224690,-107.48535584,-63.40914439,70.04410918
-9.52599267,-171.60861599,41.93751707,-43.83761890,3.63015360,-0.61536714
1.13809328,1.41010321

>  <Name>
design_3

>  <RI>
0

>  <Rbt.Current_Directory>
/home/ziqiaoxu/icml18-jtnn/VAEdesign

>  <Rbt.Executable>
rbdock ($Id: //depot/dev/client3/rdock/2013.1/src/exe/rbdock.cxx#4 $)

>  <Rbt.Library>
libRbt.so (2013.1, Build901 2013/11/27)

>  <Rbt.Parameter_File>
/export/apps/rDock/src/rDock_2013.1_src//data/scripts/dock.prm

>  <Rbt.Receptor>
/home/ziqiaoxu/icml18-jtnn/VAEdesign/targets/RdRp-SARS-CoV-2/pocket_docking.prm

>  <SCORE>
-20.2529

>  <SCORE.INTER>
-22.2973

>  <SCORE.INTER.CONST>
1

>  <SCORE.INTER.POLAR>
-2.40804

>  <SCORE.INTER.REPUL>
0

>  <SCORE.INTER.ROT>
8

>  <SCORE.INTER.VDW>
-27.51

>  <SCORE.INTER.norm>
-0.857588

>  <SCORE.INTRA>
2.04435

>  <SCORE.INTRA.DIHEDRAL>
4.27009

>  <SCORE.INTRA.DIHEDRAL.0>
1.32401

>  <SCORE.INTRA.POLAR>
0

>  <SCORE.INTRA.POLAR.0>
0

>  <SCORE.INTRA.REPUL>
0

>  <SCORE.INTRA.REPUL.0>
0

>  <SCORE.INTRA.VDW>
-0.0906972

>  <SCORE.INTRA.VDW.0>
-0.777144

>  <SCORE.INTRA.norm>
0.0786288

>  <SCORE.RESTR>
0

>  <SCORE.RESTR.CAVITY>
0

>  <SCORE.RESTR.norm>
0

>  <SCORE.SYSTEM>
0

>  <SCORE.SYSTEM.CONST>
0

>  <SCORE.SYSTEM.DIHEDRAL>
0

>  <SCORE.SYSTEM.norm>
0

>  <SCORE.heavy>
26

>  <SCORE.norm>
-0.778959

$$$$
design_2
 OpenBabel05252019093D

 27 29  0  0  0  0  0  0  0  0999 V2000
   38.7197  -48.8935    7.6541 C   0  0  0  0  0  0  0  0  0  0  0  0
   38.1573  -47.7213    6.8995 C   0  0  0  0  0  0  0  0  0  0  0  0
   37.8730  -47.7858    5.5859 C   0  0  0  0  0  0  0  0  0  0  0  0
   37.1907  -46.7375    4.9958 C   0  0  0  0  0  0  0  0  0  0  0  0
   36.8061  -45.6586    5.7068 C   0  0  0  0  0  0  0  0  0  0  0  0
   37.1131  -45.6296    7.0538 C   0  0  0  0  0  0  0  0  0  0  0  0
   37.7626  -46.5770    7.7153 C   0  0  0  0  0  0  0  0  0  0  0  0
   38.3078  -46.5411    9.0708 C   0  0  0  0  0  0  0  0  0  0  0  0
   39.4767  -45.8770    9.2858 N   0  0  0  0  0  0  0  0  0  0  0  0
   40.6206  -45.2265    9.5058 C   0  0  0  0  0  0  0  0  0  0  0  0
   41.0625  -44.9297   10.6672 O   0  0  0  0  0  0  0  0  0  0  0  0
   41.5638  -44.7668    8.4197 C   0  0  0  0  0  0  0  0  0  0  0  0
   42.2844  -46.1761    7.6212 S   0  0  1  0  0  0  0  0  0  0  0  0
   41.1210  -47.0600    7.1509 O   0  0  0  0  0  0  0  0  0  0  0  0
   43.1849  -45.6976    6.1494 C   0  0  0  0  0  0  0  0  0  0  0  0
   44.5013  -45.4234    6.1416 N   0  0  0  0  0  0  0  0  0  0  0  0
   44.9183  -45.2668    4.9497 N   0  0  0  0  0  0  0  0  0  0  0  0
   43.8244  -45.4425    4.0806 C   0  0  0  0  0  0  0  0  0  0  0  0
   43.9316  -45.3345    2.6419 C   0  0  0  0  0  0  0  0  0  0  0  0
   44.8781  -46.2402    2.0853 C   0  0  0  0  0  0  0  0  0  0  0  0
   45.1213  -46.3106    0.7255 C   0  0  0  0  0  0  0  0  0  0  0  0
   44.3956  -45.4491   -0.0907 C   0  0  0  0  0  0  0  0  0  0  0  0
   43.4582  -44.5427    0.4438 C   0  0  0  0  0  0  0  0  0  0  0  0
   43.2573  -44.5283    1.8308 C   0  0  0  0  0  0  0  0  0  0  0  0
   42.1520  -43.6139    2.2700 C   0  0  0  0  0  0  0  0  0  0  0  0
   42.8001  -45.7025    4.8895 N   0  0  0  0  0  0  0  0  0  0  0  0
   41.4102  -45.7890    4.4896 C   0  0  0  0  0  0  0  0  0  0  0  0
  1  2  1  0  0  0  0
  2  3  2  0  0  0  0
  3  4  1  0  0  0  0
  4  5  2  0  0  0  0
  5  6  1  0  0  0  0
  6  7  2  0  0  0  0
  7  8  1  0  0  0  0
  7  2  1  0  0  0  0
  8  9  1  0  0  0  0
  9 10  1  0  0  0  0
 10 11  2  0  0  0  0
 10 12  1  0  0  0  0
 12 13  1  0  0  0  0
 13 14  2  6  0  0  0
 13 15  1  0  0  0  0
 15 16  2  0  0  0  0
 16 17  1  0  0  0  0
 17 18  2  0  0  0  0
 18 19  1  0  0  0  0
 18 26  1  0  0  0  0
 19 20  2  0  0  0  0
 20 21  1  0  0  0  0
 21 22  2  0  0  0  0
 22 23  1  0  0  0  0
 23 24  2  0  0  0  0
 24 25  1  0  0  0  0
 24 19  1  0  0  0  0
 26 27  1  0  0  0  0
 26 15  1  0  0  0  0
M  END
>  <CHROM.1>
92.12689543,165.60472463,-67.02980745,54.41454934,92.84781790,57.90850505
41.36377660,-45.90255630,5.66697686,2.28700973,0.22325034,1.56480802

>  <Name>
design_2

>  <RI>
0

>  <Rbt.Current_Directory>
/home/ziqiaoxu/icml18-jtnn/VAEdesign

>  <Rbt.Executable>
rbdock ($Id: //depot/dev/client3/rdock/2013.1/src/exe/rbdock.cxx#4 $)

>  <Rbt.Library>
libRbt.so (2013.1, Build901 2013/11/27)

>  <Rbt.Parameter_File>
/export/apps/rDock/src/rDock_2013.1_src//data/scripts/dock.prm

>  <Rbt.Receptor>
/home/ziqiaoxu/icml18-jtnn/VAEdesign/targets/RdRp-SARS-CoV-2/pocket_docking.prm

>  <SCORE>
-20.0147

>  <SCORE.INTER>
-19.1448

>  <SCORE.INTER.CONST>
1

>  <SCORE.INTER.POLAR>
-0.89636

>  <SCORE.INTER.REPUL>
0.00246856

>  <SCORE.INTER.ROT>
6

>  <SCORE.INTER.VDW>
-27.5095

>  <SCORE.INTER.norm>
-0.709065

>  <SCORE.INTRA>
-0.869899

>  <SCORE.INTRA.DIHEDRAL>
3.07653

>  <SCORE.INTRA.DIHEDRAL.0>
9.79703

>  <SCORE.INTRA.POLAR>
0

>  <SCORE.INTRA.POLAR.0>
0

>  <SCORE.INTRA.REPUL>
0

>  <SCORE.INTRA.REPUL.0>
0

>  <SCORE.INTRA.VDW>
-2.40816

>  <SCORE.INTRA.VDW.0>
-0.981579

>  <SCORE.INTRA.norm>
-0.0322185

>  <SCORE.RESTR>
0

>  <SCORE.RESTR.CAVITY>
0

>  <SCORE.RESTR.norm>
0

>  <SCORE.SYSTEM>
0

>  <SCORE.SYSTEM.CONST>
0

>  <SCORE.SYSTEM.DIHEDRAL>
0

>  <SCORE.SYSTEM.norm>
0

>  <SCORE.heavy>
27

>  <SCORE.norm>
-0.741284

$$$$
design_11
 OpenBabel05252019093D

 25 28  0  0  0  0  0  0  0  0999 V2000
   39.4477  -48.3553    7.7264 O   0  0  0  0  0  0  0  0  0  0  0  0
   38.8306  -47.2545    7.3874 C   0  0  0  0  0  0  0  0  0  0  0  0
   37.9295  -47.2443    6.2637 C   0  0  0  0  0  0  0  0  0  0  0  0
   37.0669  -46.0849    5.9831 C   0  0  0  0  0  0  0  0  0  0  0  0
   37.2429  -44.7894    6.2991 N   0  0  0  0  0  0  0  0  0  0  0  0
   36.1992  -44.0347    5.9671 C   0  0  0  0  0  0  0  0  0  0  0  0
   35.9686  -42.6248    6.2017 C   0  0  0  0  0  0  0  0  0  0  0  0
   36.9766  -41.6956    6.4554 C   0  0  0  0  0  0  0  0  0  0  0  0
   36.7136  -40.3655    6.6030 C   0  0  0  0  0  0  0  0  0  0  0  0
   35.4115  -39.9117    6.5002 C   0  0  0  0  0  0  0  0  0  0  0  0
   34.4175  -40.8287    6.2494 C   0  0  0  0  0  0  0  0  0  0  0  0
   34.7229  -42.1550    6.1084 N   0  0  0  0  0  0  0  0  0  0  0  0
   35.3216  -44.9130    5.4045 N   0  0  0  0  0  0  0  0  0  0  0  0
   35.8338  -46.1261    5.4128 N   0  0  0  0  0  0  0  0  0  0  0  0
   39.1432  -46.1587    8.2000 N   0  0  0  0  0  0  0  0  0  0  0  0
   40.1159  -46.1521    9.2636 C   0  0  0  0  0  0  0  0  0  0  0  0
   41.4673  -45.7383    8.7176 C   0  0  0  0  0  0  0  0  0  0  0  0
   42.0497  -46.1261    7.5465 C   0  0  0  0  0  0  0  0  0  0  0  0
   43.3036  -45.4883    7.4414 C   0  0  0  0  0  0  0  0  0  0  0  0
   44.3280  -45.4688    6.5319 C   0  0  0  0  0  0  0  0  0  0  0  0
   45.4932  -44.7040    6.7235 C   0  0  0  0  0  0  0  0  0  0  0  0
   45.5698  -43.9640    7.8757 C   0  0  0  0  0  0  0  0  0  0  0  0
   44.5299  -43.9761    8.8073 C   0  0  0  0  0  0  0  0  0  0  0  0
   43.3982  -44.7353    8.5973 C   0  0  0  0  0  0  0  0  0  0  0  0
   42.3048  -44.9165    9.3056 O   0  0  0  0  0  0  0  0  0  0  0  0
  1  2  2  0  0  0  0
  2  3  1  0  0  0  0
  2 15  1  0  0  0  0
  3  4  1  0  0  0  0
  4  5  2  0  0  0  0
  5  6  1  0  0  0  0
  6  7  1  0  0  0  0
  6 13  2  0  0  0  0
  7  8  2  0  0  0  0
  8  9  1  0  0  0  0
  9 10  2  0  0  0  0
 10 11  1  0  0  0  0
 11 12  2  0  0  0  0
 12  7  1  0  0  0  0
 13 14  1  0  0  0  0
 14  4  1  0  0  0  0
 15 16  1  0  0  0  0
 16 17  1  0  0  0  0
 17 18  2  0  0  0  0
 18 19  1  0  0  0  0
 19 20  2  0  0  0  0
 20 21  1  0  0  0  0
 21 22  2  0  0  0  0
 22 23  1  0  0  0  0
 23 24  2  0  0  0  0
 24 25  1  0  0  0  0
 24 19  1  0  0  0  0
 25 17  1  0  0  0  0
M  END
>  <CHROM.1>
170.49289068,26.23809010,21.24298165,90.54186238,-41.97236115,39.31726691
-44.60402381,7.11500181,0.29657411,0.22243881,3.11978983

>  <Name>
design_11

>  <RI>
0

>  <Rbt.Current_Directory>
/home/ziqiaoxu/icml18-jtnn/VAEdesign

>  <Rbt.Executable>
rbdock ($Id: //depot/dev/client3/rdock/2013.1/src/exe/rbdock.cxx#4 $)

>  <Rbt.Library>
libRbt.so (2013.1, Build901 2013/11/27)

>  <Rbt.Parameter_File>
/export/apps/rDock/src/rDock_2013.1_src//data/scripts/dock.prm

>  <Rbt.Receptor>
/home/ziqiaoxu/icml18-jtnn/VAEdesign/targets/RdRp-SARS-CoV-2/pocket_docking.prm

>  <SCORE>
-20.0897

>  <SCORE.INTER>
-19.936

>  <SCORE.INTER.CONST>
1

>  <SCORE.INTER.POLAR>
-0.941337

>  <SCORE.INTER.REPUL>
0.0741261

>  <SCORE.INTER.ROT>
5

>  <SCORE.INTER.VDW>
-27.5061

>  <SCORE.INTER.norm>
-0.79744

>  <SCORE.INTRA>
-0.153652

>  <SCORE.INTRA.DIHEDRAL>
2.3246

>  <SCORE.INTRA.DIHEDRAL.0>
5.00056

>  <SCORE.INTRA.POLAR>
-0.465001

>  <SCORE.INTRA.POLAR.0>
0

>  <SCORE.INTRA.REPUL>
0

>  <SCORE.INTRA.REPUL.0>
0

>  <SCORE.INTRA.VDW>
0.26505

>  <SCORE.INTRA.VDW.0>
-2.39992

>  <SCORE.INTRA.norm>
-0.00614609

>  <SCORE.RESTR>
0

>  <SCORE.RESTR.CAVITY>
0

>  <SCORE.RESTR.norm>
0

>  <SCORE.SYSTEM>
0

>  <SCORE.SYSTEM.CONST>
0

>  <SCORE.SYSTEM.DIHEDRAL>
0

>  <SCORE.SYSTEM.norm>
0

>  <SCORE.heavy>
25

>  <SCORE.norm>
-0.803587

$$$$
design_10
 OpenBabel05252019093D

 23 25  0  0  0  0  0  0  0  0999 V2000
   41.1335  -35.9527    2.8890 C   0  0  0  0  0  0  0  0  0  0  0  0
   40.6603  -36.8729    3.9631 C   0  0  0  0  0  0  0  0  0  0  0  0
   40.8297  -38.2362    3.8673 C   0  0  0  0  0  0  0  0  0  0  0  0
   40.3901  -39.1167    4.8622 C   0  0  0  0  0  0  0  0  0  0  0  0
   39.7663  -38.6289    5.9819 C   0  0  0  0  0  0  0  0  0  0  0  0
   39.2622  -39.5271    7.0814 C   0  0  0  0  0  0  0  0  0  0  0  0
   40.3742  -39.6732    8.0781 C   0  0  0  0  0  0  0  0  0  0  0  0
   40.0393  -40.4729    9.2104 N   0  0  0  0  0  0  0  0  0  0  0  0
   40.1524  -41.8741    9.2745 C   0  0  0  0  0  0  0  0  0  0  0  0
   40.5925  -42.5093    8.2489 O   0  0  0  0  0  0  0  0  0  0  0  0
   39.8113  -42.6996   10.4293 C   0  0  0  0  0  0  0  0  0  0  0  0
   40.8750  -44.1292   10.7014 S   0  0  0  0  0  0  0  0  0  0  0  0
   40.4766  -45.3799    9.4891 C   0  0  0  0  0  0  0  0  0  0  0  0
   41.0344  -45.6751    8.3088 N   0  0  0  0  0  0  0  0  0  0  0  0
   40.4279  -46.6959    7.6891 C   0  0  0  0  0  0  0  0  0  0  0  0
   40.6392  -47.3472    6.4771 C   0  0  0  0  0  0  0  0  0  0  0  0
   39.8026  -48.3897    6.1400 C   0  0  0  0  0  0  0  0  0  0  0  0
   38.7801  -48.7896    6.9699 C   0  0  0  0  0  0  0  0  0  0  0  0
   38.5915  -48.1248    8.1705 C   0  0  0  0  0  0  0  0  0  0  0  0
   39.4102  -47.0756    8.5409 C   0  0  0  0  0  0  0  0  0  0  0  0
   39.4469  -46.2789    9.6206 N   0  0  0  0  0  0  0  0  0  0  0  0
   39.5936  -37.2662    6.0855 C   0  0  0  0  0  0  0  0  0  0  0  0
   40.0284  -36.3915    5.0993 C   0  0  0  0  0  0  0  0  0  0  0  0
  1  2  1  0  0  0  0
  2  3  2  0  0  0  0
  3  4  1  0  0  0  0
  4  5  2  0  0  0  0
  5  6  1  0  0  0  0
  5 22  1  0  0  0  0
  6  7  1  0  0  0  0
  7  8  1  0  0  0  0
  8  9  1  0  0  0  0
  9 10  2  0  0  0  0
  9 11  1  0  0  0  0
 11 12  1  0  0  0  0
 12 13  1  0  0  0  0
 13 14  2  0  0  0  0
 14 15  1  0  0  0  0
 15 16  2  0  0  0  0
 16 17  1  0  0  0  0
 17 18  2  0  0  0  0
 18 19  1  0  0  0  0
 19 20  2  0  0  0  0
 20 21  1  0  0  0  0
 20 15  1  0  0  0  0
 21 13  1  0  0  0  0
 22 23  2  0  0  0  0
 23  2  1  0  0  0  0
M  END
>  <CHROM.1>
90.88637463,178.35308617,86.30719569,-143.94548487,-74.61630186,96.11979342
40.14089083,-42.53598011,7.49367569,0.75298223,-1.50344540,-1.16497402

>  <Name>
design_10

>  <RI>
0

>  <Rbt.Current_Directory>
/home/ziqiaoxu/icml18-jtnn/VAEdesign

>  <Rbt.Executable>
rbdock ($Id: //depot/dev/client3/rdock/2013.1/src/exe/rbdock.cxx#4 $)

>  <Rbt.Library>
libRbt.so (2013.1, Build901 2013/11/27)

>  <Rbt.Parameter_File>
/export/apps/rDock/src/rDock_2013.1_src//data/scripts/dock.prm

>  <Rbt.Receptor>
/home/ziqiaoxu/icml18-jtnn/VAEdesign/targets/RdRp-SARS-CoV-2/pocket_docking.prm

>  <SCORE>
-22.7711

>  <SCORE.INTER>
-22.7794

>  <SCORE.INTER.CONST>
1

>  <SCORE.INTER.POLAR>
-1.96348

>  <SCORE.INTER.REPUL>
0

>  <SCORE.INTER.ROT>
6

>  <SCORE.INTER.VDW>
-27.5036

>  <SCORE.INTER.norm>
-0.99041

>  <SCORE.INTRA>
0.00837388

>  <SCORE.INTRA.DIHEDRAL>
0.087122

>  <SCORE.INTRA.DIHEDRAL.0>
7.49221

>  <SCORE.INTRA.POLAR>
0

>  <SCORE.INTRA.POLAR.0>
0

>  <SCORE.INTRA.REPUL>
0

>  <SCORE.INTRA.REPUL.0>
0

>  <SCORE.INTRA.VDW>
-0.0351871

>  <SCORE.INTRA.VDW.0>
-1.47114

>  <SCORE.INTRA.norm>
0.000364082

>  <SCORE.RESTR>
0

>  <SCORE.RESTR.CAVITY>
0

>  <SCORE.RESTR.norm>
0

>  <SCORE.SYSTEM>
0

>  <SCORE.SYSTEM.CONST>
0

>  <SCORE.SYSTEM.DIHEDRAL>
0

>  <SCORE.SYSTEM.norm>
0

>  <SCORE.heavy>
23

>  <SCORE.norm>
-0.990046

$$$$
design_10
 OpenBabel05252019093D

 25 27  0  0  0  0  0  0  0  0999 V2000
   39.8896  -46.3654   10.3815 N   0  0  0  0  0  0  0  0  0  0  0  0
   39.5019  -46.3321    9.0243 C   0  0  0  0  0  0  0  0  0  0  0  0
   40.1290  -45.6241    8.2170 O   0  0  0  0  0  0  0  0  0  0  0  0
   38.3545  -47.1400    8.5793 C   0  0  0  0  0  0  0  0  0  0  0  0
   38.0122  -47.0066    7.2386 O   0  0  0  0  0  0  0  0  0  0  0  0
   37.5145  -45.8397    6.7156 C   0  0  0  0  0  0  0  0  0  0  0  0
   36.3168  -45.9625    5.9869 C   0  0  0  0  0  0  0  0  0  0  0  0
   35.7434  -44.8586    5.4306 C   0  0  0  0  0  0  0  0  0  0  0  0
   36.3502  -43.6068    5.5876 C   0  0  0  0  0  0  0  0  0  0  0  0
   37.5145  -43.4348    6.2874 C   0  0  0  0  0  0  0  0  0  0  0  0
   38.1582  -42.1988    6.4922 N   0  0  0  0  0  0  0  0  0  0  0  0
   39.1384  -41.8954    7.4424 C   0  0  0  0  0  0  0  0  0  0  0  0
   39.5907  -42.7498    8.2724 O   0  0  0  0  0  0  0  0  0  0  0  0
   39.6902  -40.5299    7.5060 C   0  0  0  0  0  0  0  0  0  0  0  0
   40.3007  -39.9946    8.6095 C   0  0  0  0  0  0  0  0  0  0  0  0
   40.7832  -38.6792    8.5596 C   0  0  0  0  0  0  0  0  0  0  0  0
   40.6498  -37.9215    7.4145 C   0  0  0  0  0  0  0  0  0  0  0  0
   40.0335  -38.4526    6.2903 C   0  0  0  0  0  0  0  0  0  0  0  0
   39.8846  -37.6981    5.1059 N   0  0  0  0  0  0  0  0  0  0  0  0
   40.1546  -36.3895    4.9550 C   0  0  0  0  0  0  0  0  0  0  0  0
   39.8866  -36.0059    3.6605 C   0  0  0  0  0  0  0  0  0  0  0  0
   39.4405  -37.1403    3.0270 C   0  0  0  0  0  0  0  0  0  0  0  0
   39.4615  -38.1258    3.9487 N   0  0  0  0  0  0  0  0  0  0  0  0
   39.5733  -39.7493    6.3815 C   0  0  0  0  0  0  0  0  0  0  0  0
   38.0559  -44.6115    6.8369 C   0  0  0  0  0  0  0  0  0  0  0  0
  1  2  1  0  0  0  0
  2  3  2  0  0  0  0
  2  4  1  0  0  0  0
  4  5  1  0  0  0  0
  5  6  1  0  0  0  0
  6  7  2  0  0  0  0
  7  8  1  0  0  0  0
  8  9  2  0  0  0  0
  9 10  1  0  0  0  0
 10 11  1  0  0  0  0
 10 25  2  0  0  0  0
 11 12  1  0  0  0  0
 12 13  2  0  0  0  0
 12 14  1  0  0  0  0
 14 15  2  0  0  0  0
 15 16  1  0  0  0  0
 16 17  2  0  0  0  0
 17 18  1  0  0  0  0
 18 19  1  0  0  0  0
 18 24  2  0  0  0  0
 19 20  1  0  0  0  0
 20 21  2  0  0  0  0
 21 22  1  0  0  0  0
 22 23  2  0  0  0  0
 23 19  1  0  0  0  0
 24 14  1  0  0  0  0
 25  6  1  0  0  0  0
M  END
>  <CHROM.1>
177.62885365,-66.70348499,-128.00869666,162.97216531,158.04563272,-8.10429661
38.97953006,-42.03374304,6.76613731,-1.86526928,-0.86610822,-0.52214925

>  <Name>
design_10

>  <RI>
0

>  <Rbt.Current_Directory>
/home/ziqiaoxu/icml18-jtnn/VAEdesign

>  <Rbt.Executable>
rbdock ($Id: //depot/dev/client3/rdock/2013.1/src/exe/rbdock.cxx#4 $)

>  <Rbt.Library>
libRbt.so (2013.1, Build901 2013/11/27)

>  <Rbt.Parameter_File>
/export/apps/rDock/src/rDock_2013.1_src//data/scripts/dock.prm

>  <Rbt.Receptor>
/home/ziqiaoxu/icml18-jtnn/VAEdesign/targets/RdRp-SARS-CoV-2/pocket_docking.prm

>  <SCORE>
-21.5106

>  <SCORE.INTER>
-20.967

>  <SCORE.INTER.CONST>
1

>  <SCORE.INTER.POLAR>
-1.44329

>  <SCORE.INTER.REPUL>
0.0087071

>  <SCORE.INTER.ROT>
6

>  <SCORE.INTER.VDW>
-27.5034

>  <SCORE.INTER.norm>
-0.83868

>  <SCORE.INTRA>
-0.543625

>  <SCORE.INTRA.DIHEDRAL>
-1.81069

>  <SCORE.INTRA.DIHEDRAL.0>
9.39827

>  <SCORE.INTRA.POLAR>
0

>  <SCORE.INTRA.POLAR.0>
0

>  <SCORE.INTRA.REPUL>
0

>  <SCORE.INTRA.REPUL.0>
0

>  <SCORE.INTRA.VDW>
0.361718

>  <SCORE.INTRA.VDW.0>
-0.3836

>  <SCORE.INTRA.norm>
-0.021745

>  <SCORE.RESTR>
0

>  <SCORE.RESTR.CAVITY>
0

>  <SCORE.RESTR.norm>
0

>  <SCORE.SYSTEM>
0

>  <SCORE.SYSTEM.CONST>
0

>  <SCORE.SYSTEM.DIHEDRAL>
0

>  <SCORE.SYSTEM.norm>
0

>  <SCORE.heavy>
25

>  <SCORE.norm>
-0.860425

$$$$
design_12
 OpenBabel05252019093D

 25 28  0  0  0  0  0  0  0  0999 V2000
   39.9991  -41.0193   11.1164 O   0  0  0  0  0  0  0  0  0  0  0  0
   39.6976  -41.6223   10.0575 C   0  0  0  0  0  0  0  0  0  0  0  0
   39.2653  -43.0499   10.0527 C   0  0  0  0  0  0  0  0  0  0  0  0
   40.5198  -43.9125    9.9250 C   0  0  0  0  0  0  0  0  0  0  0  0
   40.2377  -45.1191    9.1015 C   0  0  0  0  0  0  0  0  0  0  0  0
   40.7444  -45.4590    7.9001 N   0  0  0  0  0  0  0  0  0  0  0  0
   40.2363  -46.6415    7.4792 C   0  0  0  0  0  0  0  0  0  0  0  0
   40.4133  -47.4264    6.3489 C   0  0  0  0  0  0  0  0  0  0  0  0
   39.7430  -48.6243    6.1821 C   0  0  0  0  0  0  0  0  0  0  0  0
   38.8873  -49.0178    7.1791 C   0  0  0  0  0  0  0  0  0  0  0  0
   38.7066  -48.2387    8.3088 C   0  0  0  0  0  0  0  0  0  0  0  0
   39.3759  -47.0499    8.4688 C   0  0  0  0  0  0  0  0  0  0  0  0
   39.3886  -46.1235    9.4356 N   0  0  0  0  0  0  0  0  0  0  0  0
   39.7522  -40.9729    8.7946 N   0  0  0  0  0  0  0  0  0  0  0  0
   40.1671  -39.5653    8.6658 C   0  0  0  0  0  0  0  0  0  0  0  0
   40.7162  -39.4039    7.2385 C   0  0  0  0  0  0  0  0  0  0  0  0
   39.6546  -39.5782    6.2488 N   0  0  0  0  0  0  0  0  0  0  0  0
   39.1095  -38.2800    6.0136 C   0  0  0  0  0  0  0  0  0  0  0  0
   39.6084  -37.6348    4.7413 C   0  0  0  0  0  0  0  0  0  0  0  0
   40.1427  -36.3709    4.7762 C   0  0  0  0  0  0  0  0  0  0  0  0
   40.5486  -36.1240    3.1368 S   0  0  0  0  0  0  0  0  0  0  0  0
   40.0230  -37.6213    2.5080 C   0  0  0  0  0  0  0  0  0  0  0  0
   39.5639  -38.2324    3.5872 N   0  0  0  0  0  0  0  0  0  0  0  0
   38.6861  -40.5576    6.7090 C   0  0  0  0  0  0  0  0  0  0  0  0
   39.4152  -41.6175    7.5487 C   0  0  0  0  0  0  0  0  0  0  0  0
  1  2  2  0  0  0  0
  2  3  1  0  0  0  0
  2 14  1  0  0  0  0
  3  4  1  0  0  0  0
  4  5  1  0  0  0  0
  5  6  2  0  0  0  0
  6  7  1  0  0  0  0
  7  8  2  0  0  0  0
  8  9  1  0  0  0  0
  9 10  2  0  0  0  0
 10 11  1  0  0  0  0
 11 12  2  0  0  0  0
 12 13  1  0  0  0  0
 12  7  1  0  0  0  0
 13  5  1  0  0  0  0
 14 15  1  0  0  0  0
 15 16  1  0  0  0  0
 16 17  1  0  0  0  0
 17 18  1  0  0  0  0
 17 24  1  0  0  0  0
 18 19  1  0  0  0  0
 19 20  2  0  0  0  0
 20 21  1  0  0  0  0
 21 22  1  0  0  0  0
 22 23  2  0  0  0  0
 23 19  1  0  0  0  0
 24 25  1  0  0  0  0
 25 14  1  0  0  0  0
M  END
>  <CHROM.1>
-88.82154235,-144.51444985,114.87861417,100.94369604,-127.60406516,39.82226627
-41.98459056,7.08520125,-3.03114799,-1.53379324,-1.83783354

>  <Name>
design_12

>  <RI>
0

>  <Rbt.Current_Directory>
/home/ziqiaoxu/icml18-jtnn/VAEdesign

>  <Rbt.Executable>
rbdock ($Id: //depot/dev/client3/rdock/2013.1/src/exe/rbdock.cxx#4 $)

>  <Rbt.Library>
libRbt.so (2013.1, Build901 2013/11/27)

>  <Rbt.Parameter_File>
/export/apps/rDock/src/rDock_2013.1_src//data/scripts/dock.prm

>  <Rbt.Receptor>
/home/ziqiaoxu/icml18-jtnn/VAEdesign/targets/RdRp-SARS-CoV-2/pocket_docking.prm

>  <SCORE>
-20.8118

>  <SCORE.INTER>
-20.6314

>  <SCORE.INTER.CONST>
1

>  <SCORE.INTER.POLAR>
-1.04475

>  <SCORE.INTER.REPUL>
0.00443599

>  <SCORE.INTER.ROT>
5

>  <SCORE.INTER.VDW>
-27.5014

>  <SCORE.INTER.norm>
-0.825256

>  <SCORE.INTRA>
-0.196541

>  <SCORE.INTRA.DIHEDRAL>
4.23005

>  <SCORE.INTRA.DIHEDRAL.0>
4.66203

>  <SCORE.INTRA.POLAR>
0

>  <SCORE.INTRA.POLAR.0>
0

>  <SCORE.INTRA.REPUL>
0

>  <SCORE.INTRA.REPUL.0>
0

>  <SCORE.INTRA.VDW>
-2.31157

>  <SCORE.INTRA.VDW.0>
0.332814

>  <SCORE.INTRA.norm>
-0.00786166

>  <SCORE.RESTR>
0.0161487

>  <SCORE.RESTR.CAVITY>
0.0161487

>  <SCORE.RESTR.norm>
0.000645948

>  <SCORE.SYSTEM>
0

>  <SCORE.SYSTEM.CONST>
0

>  <SCORE.SYSTEM.DIHEDRAL>
0

>  <SCORE.SYSTEM.norm>
0

>  <SCORE.heavy>
25

>  <SCORE.norm>
-0.832471

$$$$
design_7
 OpenBabel05252019093D

 23 26  0  0  0  0  0  0  0  0999 V2000
   36.9246  -46.2086    7.7333 O   0  0  0  0  0  0  0  0  0  0  0  0
   36.9712  -46.4209    6.5265 C   0  0  0  0  0  0  0  0  0  0  0  0
   36.1238  -45.6147    5.6050 C   0  0  0  0  0  0  0  0  0  0  0  0
   36.2945  -44.1694    5.7818 C   0  0  0  0  0  0  0  0  0  0  0  0
   37.4749  -43.4739    5.6873 N   0  0  0  0  0  0  0  0  0  0  0  0
   37.1917  -42.2174    5.9197 N   0  0  0  0  0  0  0  0  0  0  0  0
   35.9283  -42.0536    6.1400 C   0  0  0  0  0  0  0  0  0  0  0  0
   35.1259  -40.8575    6.4477 C   0  0  0  0  0  0  0  0  0  0  0  0
   33.6189  -41.1690    6.5271 C   0  0  0  0  0  0  0  0  0  0  0  0
   33.5463  -40.2077    7.6748 C   0  0  0  0  0  0  0  0  0  0  0  0
   35.0364  -40.4002    7.8758 C   0  0  0  0  0  0  0  0  0  0  0  0
   35.3710  -43.2661    6.0604 O   0  0  0  0  0  0  0  0  0  0  0  0
   37.7947  -47.3882    5.9932 N   0  0  0  0  0  0  0  0  0  0  0  0
   38.7528  -48.2482    6.6967 C   0  0  0  0  0  0  0  0  0  0  0  0
   40.0033  -47.3386    6.8532 C   0  0  0  0  0  0  0  0  0  0  0  0
   40.7951  -47.1922    5.7900 C   0  0  0  0  0  0  0  0  0  0  0  0
   41.9762  -46.0628    6.3856 S   0  0  0  0  0  0  0  0  0  0  0  0
   41.3465  -45.8852    7.9693 C   0  0  0  0  0  0  0  0  0  0  0  0
   41.7763  -45.0906    9.0539 C   0  0  0  0  0  0  0  0  0  0  0  0
   41.0668  -45.1345   10.2522 C   0  0  0  0  0  0  0  0  0  0  0  0
   39.9662  -45.9782   10.2714 C   0  0  0  0  0  0  0  0  0  0  0  0
   39.5743  -46.7283    9.2045 C   0  0  0  0  0  0  0  0  0  0  0  0
   40.2757  -46.6928    7.9897 C   0  0  0  0  0  0  0  0  0  0  0  0
  1  2  2  0  0  0  0
  2  3  1  0  0  0  0
  2 13  1  0  0  0  0
  3  4  1  0  0  0  0
  4  5  2  0  0  0  0
  5  6  1  0  0  0  0
  6  7  2  0  0  0  0
  7  8  1  0  0  0  0
  7 12  1  0  0  0  0
  8  9  1  0  0  0  0
  9 10  1  0  0  0  0
 10 11  1  0  0  0  0
 11  8  1  0  0  0  0
 12  4  1  0  0  0  0
 13 14  1  0  0  0  0
 14 15  1  0  0  0  0
 15 16  2  0  0  0  0
 16 17  1  0  0  0  0
 17 18  1  0  0  0  0
 18 19  2  0  0  0  0
 19 20  1  0  0  0  0
 20 21  2  0  0  0  0
 21 22  1  0  0  0  0
 22 23  2  0  0  0  0
 23 15  1  0  0  0  0
 23 18  1  0  0  0  0
M  END
>  <CHROM.1>
53.20732018,56.95074223,175.85676281,-81.65960455,-78.95214017,38.10144022
-44.73610293,7.08283608,0.49528791,0.53647074,-2.57513005

>  <Name>
design_7

>  <RI>
0

>  <Rbt.Current_Directory>
/home/ziqiaoxu/icml18-jtnn/VAEdesign

>  <Rbt.Executable>
rbdock ($Id: //depot/dev/client3/rdock/2013.1/src/exe/rbdock.cxx#4 $)

>  <Rbt.Library>
libRbt.so (2013.1, Build901 2013/11/27)

>  <Rbt.Parameter_File>
/export/apps/rDock/src/rDock_2013.1_src//data/scripts/dock.prm

>  <Rbt.Receptor>
/home/ziqiaoxu/icml18-jtnn/VAEdesign/targets/RdRp-SARS-CoV-2/pocket_docking.prm

>  <SCORE>
-21.3479

>  <SCORE.INTER>
-20.2424

>  <SCORE.INTER.CONST>
1

>  <SCORE.INTER.POLAR>
-0.938083

>  <SCORE.INTER.REPUL>
0.00817756

>  <SCORE.INTER.ROT>
5

>  <SCORE.INTER.VDW>
-27.4938

>  <SCORE.INTER.norm>
-0.880105

>  <SCORE.INTRA>
-1.10548

>  <SCORE.INTRA.DIHEDRAL>
-0.545547

>  <SCORE.INTRA.DIHEDRAL.0>
7.38278

>  <SCORE.INTRA.POLAR>
0

>  <SCORE.INTRA.POLAR.0>
0

>  <SCORE.INTRA.REPUL>
0

>  <SCORE.INTRA.REPUL.0>
0

>  <SCORE.INTRA.VDW>
-0.832707

>  <SCORE.INTRA.VDW.0>
-1.43798

>  <SCORE.INTRA.norm>
-0.0480644

>  <SCORE.RESTR>
0

>  <SCORE.RESTR.CAVITY>
0

>  <SCORE.RESTR.norm>
0

>  <SCORE.SYSTEM>
0

>  <SCORE.SYSTEM.CONST>
0

>  <SCORE.SYSTEM.DIHEDRAL>
0

>  <SCORE.SYSTEM.norm>
0

>  <SCORE.heavy>
23

>  <SCORE.norm>
-0.928169

$$$$
design_13
 OpenBabel05252019093D

 26 28  0  0  0  0  0  0  0  0999 V2000
   38.9811  -48.4451    5.8115 N   0  0  0  0  0  0  0  0  0  0  0  0
   38.9625  -48.4341    7.2294 C   0  0  0  0  0  0  0  0  0  0  0  0
   38.2915  -49.2484    7.8890 O   0  0  0  0  0  0  0  0  0  0  0  0
   39.7570  -47.4391    7.9491 C   0  0  0  0  0  0  0  0  0  0  0  0
   39.3283  -46.9166    9.1688 C   0  0  0  0  0  0  0  0  0  0  0  0
   40.0895  -45.9879    9.8300 C   0  0  0  0  0  0  0  0  0  0  0  0
   41.2949  -45.5714    9.2719 C   0  0  0  0  0  0  0  0  0  0  0  0
   41.7582  -46.0582    8.0745 C   0  0  0  0  0  0  0  0  0  0  0  0
   42.9687  -45.6946    7.4764 N   0  0  0  0  0  0  0  0  0  0  0  0
   43.9322  -44.8343    7.9758 C   0  0  0  0  0  0  0  0  0  0  0  0
   43.8391  -44.2636    9.0643 O   0  0  0  0  0  0  0  0  0  0  0  0
   45.1590  -44.5488    7.2108 C   0  0  0  0  0  0  0  0  0  0  0  0
   46.0431  -43.6322    7.6890 C   0  0  0  0  0  0  0  0  0  0  0  0
   47.1982  -43.3390    7.0103 C   0  0  0  0  0  0  0  0  0  0  0  0
   47.4572  -43.9761    5.8477 C   0  0  0  0  0  0  0  0  0  0  0  0
   46.5923  -44.9411    5.2814 C   0  0  0  0  0  0  0  0  0  0  0  0
   46.9304  -45.5816    4.1538 N   0  0  0  0  0  0  0  0  0  0  0  0
   47.2717  -46.2276    3.0165 C   0  0  0  0  0  0  0  0  0  0  0  0
   48.3224  -46.8592    2.7200 O   0  0  0  0  0  0  0  0  0  0  0  0
   46.2824  -46.2378    1.8634 C   0  0  0  0  0  0  0  0  0  0  0  0
   44.9820  -45.8196    1.9064 C   0  0  0  0  0  0  0  0  0  0  0  0
   44.2694  -45.9223    0.7771 C   0  0  0  0  0  0  0  0  0  0  0  0
   44.9076  -46.4387   -0.3258 C   0  0  0  0  0  0  0  0  0  0  0  0
   46.4738  -46.7573    0.2666 S   0  0  0  0  0  0  0  0  0  0  0  0
   45.4320  -45.1840    6.0347 C   0  0  0  0  0  0  0  0  0  0  0  0
   40.9392  -47.0000    7.4502 C   0  0  0  0  0  0  0  0  0  0  0  0
  1  2  1  0  0  0  0
  2  3  2  0  0  0  0
  2  4  1  0  0  0  0
  4  5  2  0  0  0  0
  5  6  1  0  0  0  0
  6  7  2  0  0  0  0
  7  8  1  0  0  0  0
  8  9  1  0  0  0  0
  8 26  2  0  0  0  0
  9 10  1  0  0  0  0
 10 11  2  0  0  0  0
 10 12  1  0  0  0  0
 12 13  2  0  0  0  0
 13 14  1  0  0  0  0
 14 15  2  0  0  0  0
 15 16  1  0  0  0  0
 16 17  1  0  0  0  0
 16 25  2  0  0  0  0
 17 18  1  0  0  0  0
 18 19  2  0  0  0  0
 18 20  1  0  0  0  0
 20 21  2  0  0  0  0
 21 22  1  0  0  0  0
 22 23  2  0  0  0  0
 23 24  1  0  0  0  0
 24 20  1  0  0  0  0
 25 12  1  0  0  0  0
 26  4  1  0  0  0  0
M  END
>  <CHROM.1>
147.32730018,2.31950938,175.69512872,14.11635676,-10.04890539,43.86256079
-46.05249365,5.51493876,2.49575184,0.45784942,1.20441124

>  <Name>
design_13

>  <RI>
0

>  <Rbt.Current_Directory>
/home/ziqiaoxu/icml18-jtnn/VAEdesign

>  <Rbt.Executable>
rbdock ($Id: //depot/dev/client3/rdock/2013.1/src/exe/rbdock.cxx#4 $)

>  <Rbt.Library>
libRbt.so (2013.1, Build901 2013/11/27)

>  <Rbt.Parameter_File>
/export/apps/rDock/src/rDock_2013.1_src//data/scripts/dock.prm

>  <Rbt.Receptor>
/home/ziqiaoxu/icml18-jtnn/VAEdesign/targets/RdRp-SARS-CoV-2/pocket_docking.prm

>  <SCORE>
-26.4651

>  <SCORE.INTER>
-23.3458

>  <SCORE.INTER.CONST>
1

>  <SCORE.INTER.POLAR>
-1.83896

>  <SCORE.INTER.REPUL>
0

>  <SCORE.INTER.ROT>
5

>  <SCORE.INTER.VDW>
-27.4933

>  <SCORE.INTER.norm>
-0.897916

>  <SCORE.INTRA>
-3.11927

>  <SCORE.INTRA.DIHEDRAL>
-8.49046

>  <SCORE.INTRA.DIHEDRAL.0>
17.9067

>  <SCORE.INTRA.POLAR>
0

>  <SCORE.INTRA.POLAR.0>
0

>  <SCORE.INTRA.REPUL>
0

>  <SCORE.INTRA.REPUL.0>
0

>  <SCORE.INTRA.VDW>
1.12596

>  <SCORE.INTRA.VDW.0>
-1.81212

>  <SCORE.INTRA.norm>
-0.119972

>  <SCORE.RESTR>
0

>  <SCORE.RESTR.CAVITY>
0

>  <SCORE.RESTR.norm>
0

>  <SCORE.SYSTEM>
0

>  <SCORE.SYSTEM.CONST>
0

>  <SCORE.SYSTEM.DIHEDRAL>
0

>  <SCORE.SYSTEM.norm>
0

>  <SCORE.heavy>
26

>  <SCORE.norm>
-1.01789

$$$$
design_11
 OpenBabel05252019093D

 28 31  0  0  0  0  0  0  0  0999 V2000
   44.0193  -44.4746    6.2867 C   0  0  0  0  0  0  0  0  0  0  0  0
   43.5397  -45.1325    5.0884 N   0  0  0  0  0  0  0  0  0  0  0  0
   44.2331  -44.8341    3.8388 C   0  0  0  0  0  0  0  0  0  0  0  0
   43.4564  -43.9314    2.9798 C   0  0  0  0  0  0  0  0  0  0  0  0
   42.7809  -42.8951    3.6005 C   0  0  0  0  0  0  0  0  0  0  0  0
   42.0384  -41.9833    2.8901 C   0  0  0  0  0  0  0  0  0  0  0  0
   41.9500  -42.0848    1.5188 C   0  0  0  0  0  0  0  0  0  0  0  0
   42.6102  -43.0999    0.9008 C   0  0  0  0  0  0  0  0  0  0  0  0
   43.3615  -44.0245    1.6112 C   0  0  0  0  0  0  0  0  0  0  0  0
   44.0217  -45.0780    0.9385 N   0  0  0  0  0  0  0  0  0  0  0  0
   45.3321  -45.5872    1.2553 C   0  0  0  0  0  0  0  0  0  0  0  0
   45.8403  -46.1827   -0.0583 C   0  0  0  0  0  0  0  0  0  0  0  0
   44.5596  -46.8196   -0.5675 C   0  0  0  0  0  0  0  0  0  0  0  0
   43.5072  -45.8220   -0.1908 C   0  0  0  0  0  0  0  0  0  0  0  0
   42.4267  -46.0447    5.1382 C   0  0  0  0  0  0  0  0  0  0  0  0
   42.0895  -46.5564    4.0623 O   0  0  0  0  0  0  0  0  0  0  0  0
   41.8006  -46.3036    6.3466 N   0  0  0  0  0  0  0  0  0  0  0  0
   40.7145  -47.1384    6.6514 C   0  0  0  0  0  0  0  0  0  0  0  0
   40.1788  -48.0187    5.7528 C   0  0  0  0  0  0  0  0  0  0  0  0
   39.0915  -48.8510    6.0653 C   0  0  0  0  0  0  0  0  0  0  0  0
   38.5452  -48.7758    7.3272 C   0  0  0  0  0  0  0  0  0  0  0  0
   39.0650  -47.9000    8.2478 C   0  0  0  0  0  0  0  0  0  0  0  0
   40.1407  -47.0916    7.9046 C   0  0  0  0  0  0  0  0  0  0  0  0
   40.6896  -46.1792    8.8488 N   0  0  0  0  0  0  0  0  0  0  0  0
   40.1355  -45.9405   10.0444 C   0  0  0  0  0  0  0  0  0  0  0  0
   40.8932  -45.0377   10.6869 N   0  0  0  0  0  0  0  0  0  0  0  0
   41.9331  -44.7054    9.8892 C   0  0  0  0  0  0  0  0  0  0  0  0
   41.7740  -45.4275    8.7675 N   0  0  0  0  0  0  0  0  0  0  0  0
  1  2  1  0  0  0  0
  2  3  1  0  0  0  0
  2 15  1  0  0  0  0
  3  4  1  0  0  0  0
  4  5  2  0  0  0  0
  5  6  1  0  0  0  0
  6  7  2  0  0  0  0
  7  8  1  0  0  0  0
  8  9  2  0  0  0  0
  9 10  1  0  0  0  0
  9  4  1  0  0  0  0
 10 11  1  0  0  0  0
 11 12  1  0  0  0  0
 12 13  1  0  0  0  0
 13 14  1  0  0  0  0
 14 10  1  0  0  0  0
 15 16  2  0  0  0  0
 15 17  1  0  0  0  0
 17 18  1  0  0  0  0
 18 19  2  0  0  0  0
 19 20  1  0  0  0  0
 20 21  2  0  0  0  0
 21 22  1  0  0  0  0
 22 23  2  0  0  0  0
 23 24  1  0  0  0  0
 23 18  1  0  0  0  0
 24 25  1  0  0  0  0
 25 26  2  0  0  0  0
 26 27  1  0  0  0  0
 27 28  2  0  0  0  0
 28 24  1  0  0  0  0
M  END
>  <CHROM.1>
-104.62870038,39.80813760,-39.63644126,9.23386543,172.74906083,42.21333255
-45.57313587,4.83540546,-2.52913272,-1.03511055,-2.21807803

>  <Name>
design_11

>  <RI>
0

>  <Rbt.Current_Directory>
/home/ziqiaoxu/icml18-jtnn/VAEdesign

>  <Rbt.Executable>
rbdock ($Id: //depot/dev/client3/rdock/2013.1/src/exe/rbdock.cxx#4 $)

>  <Rbt.Library>
libRbt.so (2013.1, Build901 2013/11/27)

>  <Rbt.Parameter_File>
/export/apps/rDock/src/rDock_2013.1_src//data/scripts/dock.prm

>  <Rbt.Receptor>
/home/ziqiaoxu/icml18-jtnn/VAEdesign/targets/RdRp-SARS-CoV-2/pocket_docking.prm

>  <SCORE>
-26.2335

>  <SCORE.INTER>
-16.8925

>  <SCORE.INTER.CONST>
1

>  <SCORE.INTER.POLAR>
0

>  <SCORE.INTER.REPUL>
0.039124

>  <SCORE.INTER.ROT>
5

>  <SCORE.INTER.VDW>
-27.4882

>  <SCORE.INTER.norm>
-0.603305

>  <SCORE.INTRA>
-9.34093

>  <SCORE.INTRA.DIHEDRAL>
-19.0632

>  <SCORE.INTRA.DIHEDRAL.0>
26.5964

>  <SCORE.INTRA.POLAR>
-0.685501

>  <SCORE.INTRA.POLAR.0>
0

>  <SCORE.INTRA.REPUL>
0

>  <SCORE.INTRA.REPUL.0>
0

>  <SCORE.INTRA.VDW>
2.5214

>  <SCORE.INTRA.VDW.0>
-2.46349

>  <SCORE.INTRA.norm>
-0.333604

>  <SCORE.RESTR>
0

>  <SCORE.RESTR.CAVITY>
0

>  <SCORE.RESTR.norm>
0

>  <SCORE.SYSTEM>
0

>  <SCORE.SYSTEM.CONST>
0

>  <SCORE.SYSTEM.DIHEDRAL>
0

>  <SCORE.SYSTEM.norm>
0

>  <SCORE.heavy>
28

>  <SCORE.norm>
-0.936909

$$$$
design_7
 OpenBabel05252019093D

 26 29  0  0  0  0  0  0  0  0999 V2000
   48.1783  -46.4209    3.8630 C   0  0  0  0  0  0  0  0  0  0  0  0
   46.9038  -46.2220    3.1962 N   0  0  0  0  0  0  0  0  0  0  0  0
   45.8432  -45.7279    3.8174 C   0  0  0  0  0  0  0  0  0  0  0  0
   45.8688  -45.3460    5.2122 C   0  0  0  0  0  0  0  0  0  0  0  0
   46.8776  -44.8805    5.7549 O   0  0  0  0  0  0  0  0  0  0  0  0
   44.6937  -45.5007    6.0269 N   0  0  0  0  0  0  0  0  0  0  0  0
   44.6961  -45.1224    7.4355 C   0  0  0  0  0  0  0  0  0  0  0  0
   43.3960  -44.4548    7.7305 C   0  0  0  0  0  0  0  0  0  0  0  0
   42.2474  -45.4001    7.6975 C   0  0  0  0  0  0  0  0  0  0  0  0
   41.8679  -46.1325    6.6694 N   0  0  0  0  0  0  0  0  0  0  0  0
   40.8391  -46.9240    6.7736 C   0  0  0  0  0  0  0  0  0  0  0  0
   40.3178  -47.7639    5.7636 C   0  0  0  0  0  0  0  0  0  0  0  0
   39.2340  -48.5367    6.0217 C   0  0  0  0  0  0  0  0  0  0  0  0
   38.5570  -48.5873    7.2294 C   0  0  0  0  0  0  0  0  0  0  0  0
   39.0655  -47.7654    8.2210 C   0  0  0  0  0  0  0  0  0  0  0  0
   40.1838  -46.9591    7.9765 C   0  0  0  0  0  0  0  0  0  0  0  0
   41.1099  -45.8298    8.8921 S   0  0  0  0  0  0  0  0  0  0  0  0
   44.6469  -45.5502    3.1591 N   0  0  0  0  0  0  0  0  0  0  0  0
   44.5307  -45.8733    1.8773 C   0  0  0  0  0  0  0  0  0  0  0  0
   43.3402  -45.7019    1.2025 C   0  0  0  0  0  0  0  0  0  0  0  0
   43.2302  -46.0405   -0.1282 C   0  0  0  0  0  0  0  0  0  0  0  0
   44.3115  -46.5561   -0.8041 C   0  0  0  0  0  0  0  0  0  0  0  0
   45.4988  -46.7299   -0.1416 C   0  0  0  0  0  0  0  0  0  0  0  0
   45.6284  -46.3919    1.2084 C   0  0  0  0  0  0  0  0  0  0  0  0
   46.7923  -46.5561    1.8797 C   0  0  0  0  0  0  0  0  0  0  0  0
   47.7973  -47.0209    1.3035 O   0  0  0  0  0  0  0  0  0  0  0  0
  1  2  1  0  0  0  0
  2  3  1  0  0  0  0
  3  4  1  0  0  0  0
  3 18  2  0  0  0  0
  4  5  2  0  0  0  0
  4  6  1  0  0  0  0
  6  7  1  0  0  0  0
  7  8  1  0  0  0  0
  8  9  1  0  0  0  0
  9 10  2  0  0  0  0
 10 11  1  0  0  0  0
 11 12  2  0  0  0  0
 12 13  1  0  0  0  0
 13 14  2  0  0  0  0
 14 15  1  0  0  0  0
 15 16  2  0  0  0  0
 16 17  1  0  0  0  0
 16 11  1  0  0  0  0
 17  9  1  0  0  0  0
 18 19  1  0  0  0  0
 19 20  2  0  0  0  0
 20 21  1  0  0  0  0
 21 22  2  0  0  0  0
 22 23  1  0  0  0  0
 23 24  2  0  0  0  0
 24 25  1  0  0  0  0
 24 19  1  0  0  0  0
 25 26  2  0  0  0  0
 25  2  1  0  0  0  0
M  END
>  <CHROM.1>
33.27898071,139.35525738,69.70050152,-59.29333332,43.63437919,-46.26637365
4.76163203,-0.79386658,0.30938648,1.36980002

>  <Name>
design_7

>  <RI>
0

>  <Rbt.Current_Directory>
/home/ziqiaoxu/icml18-jtnn/VAEdesign

>  <Rbt.Executable>
rbdock ($Id: //depot/dev/client3/rdock/2013.1/src/exe/rbdock.cxx#4 $)

>  <Rbt.Library>
libRbt.so (2013.1, Build901 2013/11/27)

>  <Rbt.Parameter_File>
/export/apps/rDock/src/rDock_2013.1_src//data/scripts/dock.prm

>  <Rbt.Receptor>
/home/ziqiaoxu/icml18-jtnn/VAEdesign/targets/RdRp-SARS-CoV-2/pocket_docking.prm

>  <SCORE>
-19.6817

>  <SCORE.INTER>
-18.0808

>  <SCORE.INTER.CONST>
1

>  <SCORE.INTER.POLAR>
0

>  <SCORE.INTER.REPUL>
0

>  <SCORE.INTER.ROT>
4

>  <SCORE.INTER.VDW>
-27.4808

>  <SCORE.INTER.norm>
-0.695415

>  <SCORE.INTRA>
-1.60091

>  <SCORE.INTRA.DIHEDRAL>
4.20228

>  <SCORE.INTRA.DIHEDRAL.0>
2.548

>  <SCORE.INTRA.POLAR>
-0.306558

>  <SCORE.INTRA.POLAR.0>
-0.0161043

>  <SCORE.INTRA.REPUL>
0

>  <SCORE.INTRA.REPUL.0>
0

>  <SCORE.INTRA.VDW>
-2.65975

>  <SCORE.INTRA.VDW.0>
2.18167

>  <SCORE.INTRA.norm>
-0.0615733

>  <SCORE.RESTR>
0

>  <SCORE.RESTR.CAVITY>
0

>  <SCORE.RESTR.norm>
0

>  <SCORE.SYSTEM>
0

>  <SCORE.SYSTEM.CONST>
0

>  <SCORE.SYSTEM.DIHEDRAL>
0

>  <SCORE.SYSTEM.norm>
0

>  <SCORE.heavy>
26

>  <SCORE.norm>
-0.756988

$$$$
design_14
 OpenBabel05252019093D

 22 25  0  0  0  0  0  0  0  0999 V2000
   40.5921  -47.0360    5.0069 O   0  0  0  0  0  0  0  0  0  0  0  0
   39.5148  -47.2123    5.6372 C   0  0  0  0  0  0  0  0  0  0  0  0
   39.7440  -48.0099    6.9191 C   0  0  0  0  0  0  0  0  0  0  0  0
   39.8700  -47.1053    8.0648 C   0  0  0  0  0  0  0  0  0  0  0  0
   38.9947  -46.9553    9.1043 C   0  0  0  0  0  0  0  0  0  0  0  0
   39.5361  -46.0206    9.9424 N   0  0  0  0  0  0  0  0  0  0  0  0
   40.7052  -45.6046    9.4421 C   0  0  0  0  0  0  0  0  0  0  0  0
   41.6589  -44.6900    9.8598 C   0  0  0  0  0  0  0  0  0  0  0  0
   42.8132  -44.4353    9.1353 C   0  0  0  0  0  0  0  0  0  0  0  0
   43.0608  -45.0946    7.9500 C   0  0  0  0  0  0  0  0  0  0  0  0
   42.1153  -46.0127    7.5205 C   0  0  0  0  0  0  0  0  0  0  0  0
   40.9748  -46.2524    8.2537 C   0  0  0  0  0  0  0  0  0  0  0  0
   38.2964  -46.7693    5.2743 N   0  0  0  0  0  0  0  0  0  0  0  0
   37.0406  -46.3126    4.9003 C   0  0  0  0  0  0  0  0  0  0  0  0
   36.9340  -44.8681    5.3470 C   0  0  0  0  0  0  0  0  0  0  0  0
   35.7609  -44.2447    5.5146 N   0  0  0  0  0  0  0  0  0  0  0  0
   36.0154  -42.9820    5.9112 C   0  0  0  0  0  0  0  0  0  0  0  0
   35.0042  -41.9587    6.2018 C   0  0  0  0  0  0  0  0  0  0  0  0
   34.9548  -40.7689    5.3334 C   0  0  0  0  0  0  0  0  0  0  0  0
   35.4619  -40.6208    6.7182 C   0  0  0  0  0  0  0  0  0  0  0  0
   37.3567  -42.8837    5.9712 N   0  0  0  0  0  0  0  0  0  0  0  0
   37.8812  -44.0472    5.6220 O   0  0  0  0  0  0  0  0  0  0  0  0
  1  2  2  0  0  0  0
  2  3  1  0  0  0  0
  2 13  1  0  0  0  0
  3  4  1  0  0  0  0
  4  5  2  0  0  0  0
  5  6  1  0  0  0  0
  6  7  1  0  0  0  0
  7  8  2  0  0  0  0
  8  9  1  0  0  0  0
  9 10  2  0  0  0  0
 10 11  1  0  0  0  0
 11 12  2  0  0  0  0
 12  4  1  0  0  0  0
 12  7  1  0  0  0  0
 13 14  1  0  0  0  0
 14 15  1  0  0  0  0
 15 16  2  0  0  0  0
 16 17  1  0  0  0  0
 17 18  1  0  0  0  0
 17 21  2  0  0  0  0
 18 19  1  0  0  0  0
 19 20  1  0  0  0  0
 20 18  1  0  0  0  0
 21 22  1  0  0  0  0
 22 15  1  0  0  0  0
M  END
>  <CHROM.1>
96.88683405,111.59420040,-61.24375141,-159.40827073,-115.00761742,38.79471496
-44.98356314,6.93263779,0.24108297,0.64637710,-2.56051094

>  <Name>
design_14

>  <RI>
0

>  <Rbt.Current_Directory>
/home/ziqiaoxu/icml18-jtnn/VAEdesign

>  <Rbt.Executable>
rbdock ($Id: //depot/dev/client3/rdock/2013.1/src/exe/rbdock.cxx#4 $)

>  <Rbt.Library>
libRbt.so (2013.1, Build901 2013/11/27)

>  <Rbt.Parameter_File>
/export/apps/rDock/src/rDock_2013.1_src//data/scripts/dock.prm

>  <Rbt.Receptor>
/home/ziqiaoxu/icml18-jtnn/VAEdesign/targets/RdRp-SARS-CoV-2/pocket_docking.prm

>  <SCORE>
-22.4756

>  <SCORE.INTER>
-20.4909

>  <SCORE.INTER.CONST>
1

>  <SCORE.INTER.POLAR>
-1.0198

>  <SCORE.INTER.REPUL>
0.00181076

>  <SCORE.INTER.ROT>
5

>  <SCORE.INTER.VDW>
-27.4326

>  <SCORE.INTER.norm>
-0.931403

>  <SCORE.INTRA>
-1.98473

>  <SCORE.INTRA.DIHEDRAL>
-0.565024

>  <SCORE.INTRA.DIHEDRAL.0>
4.75997

>  <SCORE.INTRA.POLAR>
0

>  <SCORE.INTRA.POLAR.0>
0

>  <SCORE.INTRA.REPUL>
0

>  <SCORE.INTRA.REPUL.0>
0

>  <SCORE.INTRA.VDW>
-1.70221

>  <SCORE.INTRA.VDW.0>
-0.58482

>  <SCORE.INTRA.norm>
-0.0902148

>  <SCORE.RESTR>
0

>  <SCORE.RESTR.CAVITY>
0

>  <SCORE.RESTR.norm>
0

>  <SCORE.SYSTEM>
0

>  <SCORE.SYSTEM.CONST>
0

>  <SCORE.SYSTEM.DIHEDRAL>
0

>  <SCORE.SYSTEM.norm>
0

>  <SCORE.heavy>
22

>  <SCORE.norm>
-1.02162

$$$$
design_13
 OpenBabel05252019093D

 22 23  0  0  0  0  0  0  0  0999 V2000
   41.6901  -44.2614   10.6540 C   0  0  0  0  0  0  0  0  0  0  0  0
   41.0604  -45.2730    9.7528 C   0  0  0  0  0  0  0  0  0  0  0  0
   41.6445  -45.6420    8.5555 C   0  0  0  0  0  0  0  0  0  0  0  0
   41.0685  -46.5759    7.7179 C   0  0  0  0  0  0  0  0  0  0  0  0
   39.8840  -47.1797    8.0430 C   0  0  0  0  0  0  0  0  0  0  0  0
   39.0992  -48.3669    7.0344 S   0  0  0  0  0  0  0  0  0  0  0  0
   40.1266  -49.1139    6.2200 O   0  0  0  0  0  0  0  0  0  0  0  0
   38.3215  -49.3589    7.8573 O   0  0  0  0  0  0  0  0  0  0  0  0
   37.9974  -47.5390    5.9923 N   0  0  0  0  0  0  0  0  0  0  0  0
   38.6884  -46.4023    5.4145 C   0  0  0  0  0  0  0  0  0  0  0  0
   37.8592  -45.1835    5.5961 C   0  0  0  0  0  0  0  0  0  0  0  0
   38.4371  -44.0218    6.0623 C   0  0  0  0  0  0  0  0  0  0  0  0
   37.7354  -42.8486    6.2580 C   0  0  0  0  0  0  0  0  0  0  0  0
   36.3900  -42.8654    5.9649 C   0  0  0  0  0  0  0  0  0  0  0  0
   35.4024  -41.4420    6.1731 S   0  0  0  0  0  0  0  0  0  0  0  0
   35.0025  -40.8447    4.5847 N   0  0  0  0  0  0  0  0  0  0  0  0
   36.2273  -40.4139    6.9150 O   0  0  0  0  0  0  0  0  0  0  0  0
   34.1242  -41.7246    6.8807 O   0  0  0  0  0  0  0  0  0  0  0  0
   35.7998  -44.0199    5.4981 C   0  0  0  0  0  0  0  0  0  0  0  0
   36.4965  -45.1840    5.3042 C   0  0  0  0  0  0  0  0  0  0  0  0
   39.2823  -46.8257    9.2357 C   0  0  0  0  0  0  0  0  0  0  0  0
   39.8645  -45.8868   10.0746 C   0  0  0  0  0  0  0  0  0  0  0  0
  1  2  1  0  0  0  0
  2  3  2  0  0  0  0
  3  4  1  0  0  0  0
  4  5  2  0  0  0  0
  5  6  1  0  0  0  0
  5 21  1  0  0  0  0
  6  7  2  0  0  0  0
  6  8  2  0  0  0  0
  6  9  1  0  0  0  0
  9 10  1  0  0  0  0
 10 11  1  0  0  0  0
 11 12  2  0  0  0  0
 12 13  1  0  0  0  0
 13 14  2  0  0  0  0
 14 15  1  0  0  0  0
 14 19  1  0  0  0  0
 15 16  1  0  0  0  0
 15 17  2  0  0  0  0
 15 18  2  0  0  0  0
 19 20  2  0  0  0  0
 20 11  1  0  0  0  0
 21 22  2  0  0  0  0
 22  2  1  0  0  0  0
M  END
>  <CHROM.1>
28.50146535,47.18385906,-129.68213454,133.31525690,108.44842221,65.43988813
38.11368912,-45.01211698,7.00345373,-0.66113437,-0.72990166,0.37195816

>  <Name>
design_13

>  <RI>
0

>  <Rbt.Current_Directory>
/home/ziqiaoxu/icml18-jtnn/VAEdesign

>  <Rbt.Executable>
rbdock ($Id: //depot/dev/client3/rdock/2013.1/src/exe/rbdock.cxx#4 $)

>  <Rbt.Library>
libRbt.so (2013.1, Build901 2013/11/27)

>  <Rbt.Parameter_File>
/export/apps/rDock/src/rDock_2013.1_src//data/scripts/dock.prm

>  <Rbt.Receptor>
/home/ziqiaoxu/icml18-jtnn/VAEdesign/targets/RdRp-SARS-CoV-2/pocket_docking.prm

>  <SCORE>
-25.326

>  <SCORE.INTER>
-24.8381

>  <SCORE.INTER.CONST>
1

>  <SCORE.INTER.POLAR>
-2.6842

>  <SCORE.INTER.REPUL>
0.0627757

>  <SCORE.INTER.ROT>
6

>  <SCORE.INTER.VDW>
-27.4257

>  <SCORE.INTER.norm>
-1.12901

>  <SCORE.INTRA>
-0.487933

>  <SCORE.INTRA.DIHEDRAL>
1.95853

>  <SCORE.INTRA.DIHEDRAL.0>
3.8812

>  <SCORE.INTRA.POLAR>
0

>  <SCORE.INTRA.POLAR.0>
0

>  <SCORE.INTRA.REPUL>
0

>  <SCORE.INTRA.REPUL.0>
0

>  <SCORE.INTRA.VDW>
-1.4672

>  <SCORE.INTRA.VDW.0>
-1.36393

>  <SCORE.INTRA.norm>
-0.0221788

>  <SCORE.RESTR>
0

>  <SCORE.RESTR.CAVITY>
0

>  <SCORE.RESTR.norm>
0

>  <SCORE.SYSTEM>
0

>  <SCORE.SYSTEM.CONST>
0

>  <SCORE.SYSTEM.DIHEDRAL>
0

>  <SCORE.SYSTEM.norm>
0

>  <SCORE.heavy>
22

>  <SCORE.norm>
-1.15118

$$$$
design_2
 OpenBabel05252019093D

 25 27  0  0  0  0  0  0  0  0999 V2000
   46.3500  -43.0854    7.9636 C   0  0  0  0  0  0  0  0  0  0  0  0
   45.1036  -43.4806    8.7552 C   0  0  0  0  0  0  0  0  0  0  0  0
   44.8067  -43.2197   10.0271 N   0  0  0  0  0  0  0  0  0  0  0  0
   43.6209  -43.8033   10.3367 N   0  0  0  0  0  0  0  0  0  0  0  0
   43.1592  -44.4394    9.2447 C   0  0  0  0  0  0  0  0  0  0  0  0
   41.9628  -45.2670    9.1342 C   0  0  0  0  0  0  0  0  0  0  0  0
   40.9836  -45.2754   10.0707 C   0  0  0  0  0  0  0  0  0  0  0  0
   39.8004  -46.0182    9.9346 C   0  0  0  0  0  0  0  0  0  0  0  0
   39.5974  -46.7858    8.7897 C   0  0  0  0  0  0  0  0  0  0  0  0
   40.6192  -46.7561    7.8377 C   0  0  0  0  0  0  0  0  0  0  0  0
   40.4140  -47.4818    6.5424 C   0  0  0  0  0  0  0  0  0  0  0  0
   39.0895  -47.3640    6.1207 N   0  0  0  0  0  0  0  0  0  0  0  0
   37.8243  -47.2580    5.7174 C   0  0  0  0  0  0  0  0  0  0  0  0
   37.0328  -48.1542    5.2860 O   0  0  0  0  0  0  0  0  0  0  0  0
   37.1513  -45.9138    5.7508 C   0  0  0  0  0  0  0  0  0  0  0  0
   37.7165  -44.6808    5.9693 C   0  0  0  0  0  0  0  0  0  0  0  0
   36.7160  -43.7207    5.9009 C   0  0  0  0  0  0  0  0  0  0  0  0
   36.8216  -42.2631    6.1116 C   0  0  0  0  0  0  0  0  0  0  0  0
   35.5034  -41.6930    6.5676 C   0  0  0  0  0  0  0  0  0  0  0  0
   35.7275  -40.5806    7.5931 C   0  0  0  0  0  0  0  0  0  0  0  0
   34.7547  -41.0461    5.4105 C   0  0  0  0  0  0  0  0  0  0  0  0
   35.5846  -44.4151    5.6427 N   0  0  0  0  0  0  0  0  0  0  0  0
   35.8438  -45.6973    5.5565 N   0  0  0  0  0  0  0  0  0  0  0  0
   41.7680  -46.0255    7.9980 C   0  0  0  0  0  0  0  0  0  0  0  0
   44.0740  -44.2405    8.2631 N   0  0  0  0  0  0  0  0  0  0  0  0
  1  2  1  0  0  0  0
  2  3  2  0  0  0  0
  3  4  1  0  0  0  0
  4  5  1  0  0  0  0
  5  6  1  0  0  0  0
  5 25  2  0  0  0  0
  6  7  2  0  0  0  0
  7  8  1  0  0  0  0
  8  9  2  0  0  0  0
  9 10  1  0  0  0  0
 10 11  1  0  0  0  0
 10 24  2  0  0  0  0
 11 12  1  0  0  0  0
 12 13  1  0  0  0  0
 13 14  2  0  0  0  0
 13 15  1  0  0  0  0
 15 16  2  0  0  0  0
 16 17  1  0  0  0  0
 17 18  1  0  0  0  0
 17 22  2  0  0  0  0
 18 19  1  0  0  0  0
 19 20  1  0  0  0  0
 19 21  1  0  0  0  0
 22 23  1  0  0  0  0
 23 15  1  0  0  0  0
 24  6  1  0  0  0  0
 25  2  1  0  0  0  0
M  END
>  <CHROM.1>
14.77455864,37.28471930,-128.11154234,10.40382658,-153.89416277,143.05649321
39.63338589,-44.72454095,7.43069427,0.02447114,-0.38518244,0.16660776

>  <Name>
design_2

>  <RI>
0

>  <Rbt.Current_Directory>
/home/ziqiaoxu/icml18-jtnn/VAEdesign

>  <Rbt.Executable>
rbdock ($Id: //depot/dev/client3/rdock/2013.1/src/exe/rbdock.cxx#4 $)

>  <Rbt.Library>
libRbt.so (2013.1, Build901 2013/11/27)

>  <Rbt.Parameter_File>
/export/apps/rDock/src/rDock_2013.1_src//data/scripts/dock.prm

>  <Rbt.Receptor>
/home/ziqiaoxu/icml18-jtnn/VAEdesign/targets/RdRp-SARS-CoV-2/pocket_docking.prm

>  <SCORE>
-20.205

>  <SCORE.INTER>
-19.8833

>  <SCORE.INTER.CONST>
1

>  <SCORE.INTER.POLAR>
-1.13792

>  <SCORE.INTER.REPUL>
0

>  <SCORE.INTER.ROT>
6

>  <SCORE.INTER.VDW>
-27.4143

>  <SCORE.INTER.norm>
-0.79533

>  <SCORE.INTRA>
-0.321696

>  <SCORE.INTRA.DIHEDRAL>
2.91443

>  <SCORE.INTRA.DIHEDRAL.0>
5.93567

>  <SCORE.INTRA.POLAR>
0

>  <SCORE.INTRA.POLAR.0>
0

>  <SCORE.INTRA.REPUL>
0

>  <SCORE.INTRA.REPUL.0>
0

>  <SCORE.INTRA.VDW>
-1.77891

>  <SCORE.INTRA.VDW.0>
-0.423244

>  <SCORE.INTRA.norm>
-0.0128678

>  <SCORE.RESTR>
0

>  <SCORE.RESTR.CAVITY>
0

>  <SCORE.RESTR.norm>
0

>  <SCORE.SYSTEM>
0

>  <SCORE.SYSTEM.CONST>
0

>  <SCORE.SYSTEM.DIHEDRAL>
0

>  <SCORE.SYSTEM.norm>
0

>  <SCORE.heavy>
25

>  <SCORE.norm>
-0.808198

$$$$
design_14
 OpenBabel05252019093D

 23 25  0  0  0  0  0  0  0  0999 V2000
   39.8678  -48.0802    5.8422 C   0  0  0  0  0  0  0  0  0  0  0  0
   40.6038  -47.1793    6.8121 C   0  0  0  0  0  0  0  0  0  0  0  0
   41.7890  -46.6191    6.6665 N   0  0  0  0  0  0  0  0  0  0  0  0
   42.2761  -45.8686    7.6015 C   0  0  0  0  0  0  0  0  0  0  0  0
   43.6073  -45.2063    7.5008 C   0  0  0  0  0  0  0  0  0  0  0  0
   43.9598  -44.3428    8.5078 C   0  0  0  0  0  0  0  0  0  0  0  0
   45.1836  -43.7136    8.4464 C   0  0  0  0  0  0  0  0  0  0  0  0
   46.0183  -43.9628    7.3855 C   0  0  0  0  0  0  0  0  0  0  0  0
   45.6562  -44.8392    6.3669 C   0  0  0  0  0  0  0  0  0  0  0  0
   46.5967  -45.0463    5.2908 C   0  0  0  0  0  0  0  0  0  0  0  0
   47.6188  -44.3349    5.2207 O   0  0  0  0  0  0  0  0  0  0  0  0
   46.3747  -46.0493    4.3092 N   0  0  0  0  0  0  0  0  0  0  0  0
   47.2922  -46.2774    3.2212 C   0  0  0  0  0  0  0  0  0  0  0  0
   46.8180  -47.1776    2.1652 C   0  0  1  0  0  0  0  0  0  0  0  0
   46.4256  -48.4624    2.6241 O   0  0  0  0  0  0  0  0  0  0  0  0
   45.5978  -46.5843    1.4572 C   0  0  0  0  0  0  0  0  0  0  0  0
   45.6021  -46.4784    0.1040 C   0  0  0  0  0  0  0  0  0  0  0  0
   44.4763  -45.9670   -0.4761 C   0  0  0  0  0  0  0  0  0  0  0  0
   43.4556  -45.6503    0.8427 S   0  0  0  0  0  0  0  0  0  0  0  0
   44.4738  -46.1724    2.1078 C   0  0  0  0  0  0  0  0  0  0  0  0
   44.4404  -45.4496    6.4500 C   0  0  0  0  0  0  0  0  0  0  0  0
   41.5035  -45.6939    8.7295 C   0  0  0  0  0  0  0  0  0  0  0  0
   40.1244  -46.6307    8.3541 S   0  0  0  0  0  0  0  0  0  0  0  0
  1  2  1  0  0  0  0
  2  3  2  0  0  0  0
  3  4  1  0  0  0  0
  4  5  1  0  0  0  0
  4 22  2  0  0  0  0
  5  6  2  0  0  0  0
  6  7  1  0  0  0  0
  7  8  2  0  0  0  0
  8  9  1  0  0  0  0
  9 10  1  0  0  0  0
  9 21  2  0  0  0  0
 10 11  2  0  0  0  0
 10 12  1  0  0  0  0
 12 13  1  0  0  0  0
 14 13  1  0  0  0  0
 14 15  1  1  0  0  0
 14 16  1  0  0  0  0
 16 17  1  0  0  0  0
 17 18  2  0  0  0  0
 18 19  1  0  0  0  0
 19 20  1  0  0  0  0
 20 16  2  0  0  0  0
 21  5  1  0  0  0  0
 22 23  1  0  0  0  0
 23  2  1  0  0  0  0
M  END
>  <CHROM.1>
174.43939744,-8.15516770,-169.71397931,-56.23485974,68.31511973,127.46275846
44.09544808,-45.96636673,4.93756838,2.15826441,0.32605748,1.31076803

>  <Name>
design_14

>  <RI>
0

>  <Rbt.Current_Directory>
/home/ziqiaoxu/icml18-jtnn/VAEdesign

>  <Rbt.Executable>
rbdock ($Id: //depot/dev/client3/rdock/2013.1/src/exe/rbdock.cxx#4 $)

>  <Rbt.Library>
libRbt.so (2013.1, Build901 2013/11/27)

>  <Rbt.Parameter_File>
/export/apps/rDock/src/rDock_2013.1_src//data/scripts/dock.prm

>  <Rbt.Receptor>
/home/ziqiaoxu/icml18-jtnn/VAEdesign/targets/RdRp-SARS-CoV-2/pocket_docking.prm

>  <SCORE>
-23.3049

>  <SCORE.INTER>
-19.9516

>  <SCORE.INTER.CONST>
1

>  <SCORE.INTER.POLAR>
-0.863958

>  <SCORE.INTER.REPUL>
0

>  <SCORE.INTER.ROT>
5

>  <SCORE.INTER.VDW>
-27.4142

>  <SCORE.INTER.norm>
-0.867462

>  <SCORE.INTRA>
-3.35327

>  <SCORE.INTRA.DIHEDRAL>
-4.53259

>  <SCORE.INTRA.DIHEDRAL.0>
7.55142

>  <SCORE.INTRA.POLAR>
0

>  <SCORE.INTRA.POLAR.0>
0

>  <SCORE.INTRA.REPUL>
0

>  <SCORE.INTRA.REPUL.0>
0

>  <SCORE.INTRA.VDW>
-1.08697

>  <SCORE.INTRA.VDW.0>
1.11462

>  <SCORE.INTRA.norm>
-0.145794

>  <SCORE.RESTR>
0

>  <SCORE.RESTR.CAVITY>
0

>  <SCORE.RESTR.norm>
0

>  <SCORE.SYSTEM>
0

>  <SCORE.SYSTEM.CONST>
0

>  <SCORE.SYSTEM.DIHEDRAL>
0

>  <SCORE.SYSTEM.norm>
0

>  <SCORE.heavy>
23

>  <SCORE.norm>
-1.01326

$$$$
design_7
 OpenBabel05252019093D

 25 27  0  0  0  0  0  0  0  0999 V2000
   43.3914  -44.6150    2.7510 C   0  0  0  0  0  0  0  0  0  0  0  0
   44.6187  -45.4213    2.8758 C   0  0  0  0  0  0  0  0  0  0  0  0
   45.3488  -45.3699    4.0424 C   0  0  0  0  0  0  0  0  0  0  0  0
   45.0337  -44.5358    5.1588 N   0  0  0  0  0  0  0  0  0  0  0  0
   45.4595  -44.8688    6.5048 C   0  0  0  0  0  0  0  0  0  0  0  0
   44.2553  -45.0051    7.3693 C   0  0  0  0  0  0  0  0  0  0  0  0
   44.0523  -44.3818    8.5657 C   0  0  0  0  0  0  0  0  0  0  0  0
   42.8767  -44.7580    9.0148 O   0  0  0  0  0  0  0  0  0  0  0  0
   42.3247  -45.5850    8.1682 C   0  0  0  0  0  0  0  0  0  0  0  0
   41.0236  -46.2014    8.3400 C   0  0  0  0  0  0  0  0  0  0  0  0
   40.1860  -45.8834    9.4008 C   0  0  0  0  0  0  0  0  0  0  0  0
   38.9522  -46.4813    9.5453 C   0  0  0  0  0  0  0  0  0  0  0  0
   38.4968  -47.4208    8.6426 C   0  0  0  0  0  0  0  0  0  0  0  0
   39.3125  -47.7541    7.5782 C   0  0  0  0  0  0  0  0  0  0  0  0
   38.8234  -48.7325    6.6493 C   0  0  0  0  0  0  0  0  0  0  0  0
   38.4373  -49.5281    5.8895 N   0  0  0  0  0  0  0  0  0  0  0  0
   40.5426  -47.1499    7.4449 C   0  0  0  0  0  0  0  0  0  0  0  0
   43.1542  -45.7593    7.1363 N   0  0  0  0  0  0  0  0  0  0  0  0
   46.5058  -46.1622    4.1441 C   0  0  0  0  0  0  0  0  0  0  0  0
   46.8762  -46.9617    3.0844 C   0  0  0  0  0  0  0  0  0  0  0  0
   46.1336  -46.9926    1.9391 C   0  0  0  0  0  0  0  0  0  0  0  0
   44.9919  -46.2286    1.8026 C   0  0  0  0  0  0  0  0  0  0  0  0
   44.2067  -46.2473    0.5859 C   0  0  0  0  0  0  0  0  0  0  0  0
   44.7289  -46.9968   -0.5251 N   0  0  0  0  0  0  0  0  0  0  0  0
   43.1232  -45.6855    0.3875 O   0  0  0  0  0  0  0  0  0  0  0  0
  1  2  1  0  0  0  0
  2  3  2  0  0  0  0
  3  4  1  0  0  0  0
  3 19  1  0  0  0  0
  4  5  1  0  0  0  0
  5  6  1  0  0  0  0
  6  7  2  0  0  0  0
  7  8  1  0  0  0  0
  8  9  1  0  0  0  0
  9 10  1  0  0  0  0
  9 18  2  0  0  0  0
 10 11  2  0  0  0  0
 11 12  1  0  0  0  0
 12 13  2  0  0  0  0
 13 14  1  0  0  0  0
 14 15  1  0  0  0  0
 14 17  2  0  0  0  0
 15 16  3  0  0  0  0
 17 10  1  0  0  0  0
 18  6  1  0  0  0  0
 19 20  2  0  0  0  0
 20 21  1  0  0  0  0
 21 22  2  0  0  0  0
 22 23  1  0  0  0  0
 22  2  1  0  0  0  0
 23 24  1  0  0  0  0
 23 25  2  0  0  0  0
M  END
>  <CHROM.1>
154.98268190,-120.54077859,-128.40945355,4.90793414,173.72863128,42.94649413
-46.16075862,5.38598954,0.83147807,-0.46179476,-1.85177665

>  <Name>
design_7

>  <RI>
0

>  <Rbt.Current_Directory>
/home/ziqiaoxu/icml18-jtnn/VAEdesign

>  <Rbt.Executable>
rbdock ($Id: //depot/dev/client3/rdock/2013.1/src/exe/rbdock.cxx#4 $)

>  <Rbt.Library>
libRbt.so (2013.1, Build901 2013/11/27)

>  <Rbt.Parameter_File>
/export/apps/rDock/src/rDock_2013.1_src//data/scripts/dock.prm

>  <Rbt.Receptor>
/home/ziqiaoxu/icml18-jtnn/VAEdesign/targets/RdRp-SARS-CoV-2/pocket_docking.prm

>  <SCORE>
-22.895

>  <SCORE.INTER>
-23.2986

>  <SCORE.INTER.CONST>
1

>  <SCORE.INTER.POLAR>
-1.85359

>  <SCORE.INTER.REPUL>
0

>  <SCORE.INTER.ROT>
5

>  <SCORE.INTER.VDW>
-27.3964

>  <SCORE.INTER.norm>
-0.931945

>  <SCORE.INTRA>
0.40358

>  <SCORE.INTRA.DIHEDRAL>
2.46741

>  <SCORE.INTRA.DIHEDRAL.0>
2.98513

>  <SCORE.INTRA.POLAR>
0

>  <SCORE.INTRA.POLAR.0>
0

>  <SCORE.INTRA.REPUL>
0

>  <SCORE.INTRA.REPUL.0>
0

>  <SCORE.INTRA.VDW>
-0.830126

>  <SCORE.INTRA.VDW.0>
2.85467

>  <SCORE.INTRA.norm>
0.0161432

>  <SCORE.RESTR>
0

>  <SCORE.RESTR.CAVITY>
0

>  <SCORE.RESTR.norm>
0

>  <SCORE.SYSTEM>
0

>  <SCORE.SYSTEM.CONST>
0

>  <SCORE.SYSTEM.DIHEDRAL>
0

>  <SCORE.SYSTEM.norm>
0

>  <SCORE.heavy>
25

>  <SCORE.norm>
-0.915802

$$$$
design_14
 OpenBabel05252019093D

 25 27  0  0  0  0  0  0  0  0999 V2000
   39.8939  -36.9911    5.0311 C   0  0  0  0  0  0  0  0  0  0  0  0
   39.6965  -38.0510    6.0702 C   0  0  0  0  0  0  0  0  0  0  0  0
   40.4153  -38.0444    7.2308 C   0  0  0  0  0  0  0  0  0  0  0  0
   40.2240  -39.0433    8.2013 C   0  0  0  0  0  0  0  0  0  0  0  0
   39.3171  -40.0592    8.0302 C   0  0  0  0  0  0  0  0  0  0  0  0
   39.1091  -41.1004    9.0264 C   0  0  0  0  0  0  0  0  0  0  0  0
   40.1802  -42.0228    9.2016 N   0  0  0  0  0  0  0  0  0  0  0  0
   40.1307  -43.0020   10.2776 C   0  0  0  0  0  0  0  0  0  0  0  0
   39.1219  -42.9749   11.0055 O   0  0  0  0  0  0  0  0  0  0  0  0
   41.2499  -43.9622   10.4569 C   0  0  0  0  0  0  0  0  0  0  0  0
   40.7509  -45.3667   10.2701 C   0  0  0  0  0  0  0  0  0  0  0  0
   40.9744  -45.8671    8.9406 N   0  0  0  0  0  0  0  0  0  0  0  0
   41.9651  -45.5130    8.0940 C   0  0  0  0  0  0  0  0  0  0  0  0
   41.8454  -46.1875    6.9557 N   0  0  0  0  0  0  0  0  0  0  0  0
   40.7830  -46.9940    7.0254 C   0  0  0  0  0  0  0  0  0  0  0  0
   40.1680  -47.9046    6.1943 C   0  0  0  0  0  0  0  0  0  0  0  0
   39.0417  -48.6164    6.5499 C   0  0  0  0  0  0  0  0  0  0  0  0
   38.5138  -48.3978    7.8008 C   0  0  0  0  0  0  0  0  0  0  0  0
   39.1180  -47.4873    8.6481 C   0  0  0  0  0  0  0  0  0  0  0  0
   40.2411  -46.7849    8.2792 C   0  0  0  0  0  0  0  0  0  0  0  0
   38.5899  -40.0483    6.8342 C   0  0  0  0  0  0  0  0  0  0  0  0
   37.6406  -41.0603    6.5953 N   0  0  0  0  0  0  0  0  0  0  0  0
   36.2286  -40.8168    6.6115 C   0  0  0  0  0  0  0  0  0  0  0  0
   38.0905  -42.4361    6.3141 C   0  0  0  0  0  0  0  0  0  0  0  0
   38.7868  -39.0649    5.8923 C   0  0  0  0  0  0  0  0  0  0  0  0
  1  2  1  0  0  0  0
  2  3  2  0  0  0  0
  3  4  1  0  0  0  0
  4  5  2  0  0  0  0
  5  6  1  0  0  0  0
  5 21  1  0  0  0  0
  6  7  1  0  0  0  0
  7  8  1  0  0  0  0
  8  9  2  0  0  0  0
  8 10  1  0  0  0  0
 10 11  1  0  0  0  0
 11 12  1  0  0  0  0
 12 13  1  0  0  0  0
 13 14  2  0  0  0  0
 14 15  1  0  0  0  0
 15 16  2  0  0  0  0
 16 17  1  0  0  0  0
 17 18  2  0  0  0  0
 18 19  1  0  0  0  0
 19 20  2  0  0  0  0
 20 12  1  0  0  0  0
 20 15  1  0  0  0  0
 21 22  1  0  0  0  0
 21 25  2  0  0  0  0
 22 23  1  0  0  0  0
 22 24  1  0  0  0  0
 25  2  1  0  0  0  0
M  END
>  <CHROM.1>
-69.11486352,172.91213386,-117.71685951,96.53707584,28.70249317,109.00988906
39.66290754,-43.07534124,7.84027293,1.84828371,-1.11054501,0.09572250

>  <Name>
design_14

>  <RI>
0

>  <Rbt.Current_Directory>
/home/ziqiaoxu/icml18-jtnn/VAEdesign

>  <Rbt.Executable>
rbdock ($Id: //depot/dev/client3/rdock/2013.1/src/exe/rbdock.cxx#4 $)

>  <Rbt.Library>
libRbt.so (2013.1, Build901 2013/11/27)

>  <Rbt.Parameter_File>
/export/apps/rDock/src/rDock_2013.1_src//data/scripts/dock.prm

>  <Rbt.Receptor>
/home/ziqiaoxu/icml18-jtnn/VAEdesign/targets/RdRp-SARS-CoV-2/pocket_docking.prm

>  <SCORE>
-14.3988

>  <SCORE.INTER>
-15.9835

>  <SCORE.INTER.CONST>
1

>  <SCORE.INTER.POLAR>
0

>  <SCORE.INTER.REPUL>
0

>  <SCORE.INTER.ROT>
6

>  <SCORE.INTER.VDW>
-27.3835

>  <SCORE.INTER.norm>
-0.639341

>  <SCORE.INTRA>
1.58475

>  <SCORE.INTRA.DIHEDRAL>
5.72209

>  <SCORE.INTRA.DIHEDRAL.0>
16.4589

>  <SCORE.INTRA.POLAR>
0

>  <SCORE.INTRA.POLAR.0>
0

>  <SCORE.INTRA.REPUL>
0

>  <SCORE.INTRA.REPUL.0>
0

>  <SCORE.INTRA.VDW>
-1.2763

>  <SCORE.INTRA.VDW.0>
0.487648

>  <SCORE.INTRA.norm>
0.0633899

>  <SCORE.RESTR>
0

>  <SCORE.RESTR.CAVITY>
0

>  <SCORE.RESTR.norm>
0

>  <SCORE.SYSTEM>
0

>  <SCORE.SYSTEM.CONST>
0

>  <SCORE.SYSTEM.DIHEDRAL>
0

>  <SCORE.SYSTEM.norm>
0

>  <SCORE.heavy>
25

>  <SCORE.norm>
-0.575951

$$$$
design_18
 OpenBabel05252019093D

 24 26  0  0  0  0  0  0  0  0999 V2000
   39.6016  -36.4580    2.4618 C   0  0  0  0  0  0  0  0  0  0  0  0
   39.7128  -37.1636    3.7526 C   0  0  0  0  0  0  0  0  0  0  0  0
   39.4955  -38.5393    3.8573 C   0  0  0  0  0  0  0  0  0  0  0  0
   39.6150  -39.1405    5.0893 C   0  0  0  0  0  0  0  0  0  0  0  0
   39.9407  -38.4363    6.2226 C   0  0  0  0  0  0  0  0  0  0  0  0
   40.0701  -39.0716    7.5330 C   0  0  0  0  0  0  0  0  0  0  0  0
   40.7345  -38.5823    8.5961 N   0  0  0  0  0  0  0  0  0  0  0  0
   40.6372  -39.4281    9.6119 N   0  0  0  0  0  0  0  0  0  0  0  0
   39.9051  -40.4841    9.2225 C   0  0  0  0  0  0  0  0  0  0  0  0
   39.5300  -41.6735   10.0063 C   0  0  0  0  0  0  0  0  0  0  0  0
   39.6461  -42.8798    9.1015 C   0  0  0  0  0  0  0  0  0  0  0  0
   40.1516  -42.6578    7.9955 O   0  0  0  0  0  0  0  0  0  0  0  0
   39.2014  -44.1313    9.5274 N   0  0  0  0  0  0  0  0  0  0  0  0
   39.2494  -45.3158    8.7989 C   0  0  0  0  0  0  0  0  0  0  0  0
   38.1763  -46.0724    8.4373 C   0  0  0  0  0  0  0  0  0  0  0  0
   38.2714  -47.2609    7.7007 C   0  0  0  0  0  0  0  0  0  0  0  0
   39.4881  -47.7147    7.3078 C   0  0  0  0  0  0  0  0  0  0  0  0
   39.6021  -48.9713    6.5279 C   0  0  0  0  0  0  0  0  0  0  0  0
   40.5979  -46.9843    7.6498 C   0  0  0  0  0  0  0  0  0  0  0  0
   40.4990  -45.8207    8.3716 C   0  0  0  0  0  0  0  0  0  0  0  0
   41.7105  -45.0520    8.7281 C   0  0  0  0  0  0  0  0  0  0  0  0
   39.5663  -40.2474    7.9447 N   0  0  0  0  0  0  0  0  0  0  0  0
   40.1529  -37.0784    6.1069 C   0  0  0  0  0  0  0  0  0  0  0  0
   40.0409  -36.4338    4.8746 C   0  0  0  0  0  0  0  0  0  0  0  0
  1  2  1  0  0  0  0
  2  3  2  0  0  0  0
  3  4  1  0  0  0  0
  4  5  2  0  0  0  0
  5  6  1  0  0  0  0
  5 23  1  0  0  0  0
  6  7  2  0  0  0  0
  7  8  1  0  0  0  0
  8  9  1  0  0  0  0
  9 10  1  0  0  0  0
  9 22  2  0  0  0  0
 10 11  1  0  0  0  0
 11 12  2  0  0  0  0
 11 13  1  0  0  0  0
 13 14  1  0  0  0  0
 14 15  2  0  0  0  0
 15 16  1  0  0  0  0
 16 17  2  0  0  0  0
 17 18  1  0  0  0  0
 17 19  1  0  0  0  0
 19 20  2  0  0  0  0
 20 21  1  0  0  0  0
 20 14  1  0  0  0  0
 22  6  1  0  0  0  0
 23 24  2  0  0  0  0
 24  2  1  0  0  0  0
M  END
>  <CHROM.1>
159.65178776,-139.62866415,7.59679094,-119.52435979,39.83128488,-41.91412103
7.33224873,1.33835037,-1.43114572,-0.53164088

>  <Name>
design_18

>  <RI>
0

>  <Rbt.Current_Directory>
/home/ziqiaoxu/icml18-jtnn/VAEdesign

>  <Rbt.Executable>
rbdock ($Id: //depot/dev/client3/rdock/2013.1/src/exe/rbdock.cxx#4 $)

>  <Rbt.Library>
libRbt.so (2013.1, Build901 2013/11/27)

>  <Rbt.Parameter_File>
/export/apps/rDock/src/rDock_2013.1_src//data/scripts/dock.prm

>  <Rbt.Receptor>
/home/ziqiaoxu/icml18-jtnn/VAEdesign/targets/RdRp-SARS-CoV-2/pocket_docking.prm

>  <SCORE>
-17.2292

>  <SCORE.INTER>
-21.4507

>  <SCORE.INTER.CONST>
1

>  <SCORE.INTER.POLAR>
-1.0198

>  <SCORE.INTER.REPUL>
0

>  <SCORE.INTER.ROT>
4

>  <SCORE.INTER.VDW>
-27.3834

>  <SCORE.INTER.norm>
-0.893779

>  <SCORE.INTRA>
4.22152

>  <SCORE.INTRA.DIHEDRAL>
11.2302

>  <SCORE.INTRA.DIHEDRAL.0>
2.69736

>  <SCORE.INTRA.POLAR>
0

>  <SCORE.INTRA.POLAR.0>
0

>  <SCORE.INTRA.REPUL>
0

>  <SCORE.INTRA.REPUL.0>
0

>  <SCORE.INTRA.VDW>
-1.39357

>  <SCORE.INTRA.VDW.0>
2.12657

>  <SCORE.INTRA.norm>
0.175897

>  <SCORE.RESTR>
0

>  <SCORE.RESTR.CAVITY>
0

>  <SCORE.RESTR.norm>
0

>  <SCORE.SYSTEM>
0

>  <SCORE.SYSTEM.CONST>
0

>  <SCORE.SYSTEM.DIHEDRAL>
0

>  <SCORE.SYSTEM.norm>
0

>  <SCORE.heavy>
24

>  <SCORE.norm>
-0.717882

$$$$
design_3
 OpenBabel05252019093D

 25 28  0  0  0  0  0  0  0  0999 V2000
   37.4219  -46.4128    5.4302 C   0  0  0  0  0  0  0  0  0  0  0  0
   37.2250  -45.6490    6.7324 C   0  0  2  0  0  0  0  0  0  0  0  0
   37.0132  -44.2234    6.3563 C   0  0  0  0  0  0  0  0  0  0  0  0
   37.9334  -43.4117    6.6242 O   0  0  0  0  0  0  0  0  0  0  0  0
   35.8395  -43.7659    5.7235 N   0  0  0  0  0  0  0  0  0  0  0  0
   35.6546  -42.3801    5.3683 C   0  0  0  0  0  0  0  0  0  0  0  0
   34.9763  -41.5950    6.4315 C   0  0  0  0  0  0  0  0  0  0  0  0
   35.6036  -40.6912    7.2846 C   0  0  0  0  0  0  0  0  0  0  0  0
   34.6395  -40.1767    8.1188 C   0  0  0  0  0  0  0  0  0  0  0  0
   33.4631  -40.7827    7.7461 C   0  0  0  0  0  0  0  0  0  0  0  0
   33.7189  -41.5976    6.7604 O   0  0  0  0  0  0  0  0  0  0  0  0
   38.4804  -45.8120    7.5225 C   0  0  0  0  0  0  0  0  0  0  0  0
   39.7287  -45.5182    7.2379 N   0  0  0  0  0  0  0  0  0  0  0  0
   40.6684  -45.7576    8.1050 C   0  0  0  0  0  0  0  0  0  0  0  0
   42.0940  -45.4439    7.8314 C   0  0  0  0  0  0  0  0  0  0  0  0
   42.9083  -44.9358    8.8098 C   0  0  0  0  0  0  0  0  0  0  0  0
   44.2526  -44.6378    8.5594 C   0  0  0  0  0  0  0  0  0  0  0  0
   44.8036  -44.8472    7.3134 C   0  0  0  0  0  0  0  0  0  0  0  0
   43.9866  -45.3576    6.3300 C   0  0  0  0  0  0  0  0  0  0  0  0
   42.6663  -45.6477    6.5845 C   0  0  0  0  0  0  0  0  0  0  0  0
   44.7637  -45.4735    5.1913 O   0  0  0  0  0  0  0  0  0  0  0  0
   46.0821  -45.0313    5.4626 C   0  0  0  0  0  0  0  0  0  0  0  0
   46.0874  -44.6392    6.8105 O   0  0  0  0  0  0  0  0  0  0  0  0
   40.2886  -46.3192    9.3004 C   0  0  0  0  0  0  0  0  0  0  0  0
   38.5936  -46.4643    9.0907 S   0  0  0  0  0  0  0  0  0  0  0  0
  2  1  1  6  0  0  0
  2  3  1  0  0  0  0
  2 12  1  0  0  0  0
  3  4  2  0  0  0  0
  3  5  1  0  0  0  0
  5  6  1  0  0  0  0
  6  7  1  0  0  0  0
  7  8  2  0  0  0  0
  8  9  1  0  0  0  0
  9 10  2  0  0  0  0
 10 11  1  0  0  0  0
 11  7  1  0  0  0  0
 12 13  2  0  0  0  0
 13 14  1  0  0  0  0
 14 15  1  0  0  0  0
 14 24  2  0  0  0  0
 15 16  2  0  0  0  0
 16 17  1  0  0  0  0
 17 18  2  0  0  0  0
 18 19  1  0  0  0  0
 19 20  2  0  0  0  0
 19 21  1  0  0  0  0
 20 15  1  0  0  0  0
 21 22  1  0  0  0  0
 22 23  1  0  0  0  0
 23 18  1  0  0  0  0
 24 25  1  0  0  0  0
 25 12  1  0  0  0  0
M  END
>  <CHROM.1>
-109.32793782,-91.76081937,104.65588094,57.42871169,140.81162100,39.49851938
-44.36692557,7.12541987,2.84510728,0.12583845,-0.40424516

>  <Name>
design_3

>  <RI>
0

>  <Rbt.Current_Directory>
/home/ziqiaoxu/icml18-jtnn/VAEdesign

>  <Rbt.Executable>
rbdock ($Id: //depot/dev/client3/rdock/2013.1/src/exe/rbdock.cxx#4 $)

>  <Rbt.Library>
libRbt.so (2013.1, Build901 2013/11/27)

>  <Rbt.Parameter_File>
/export/apps/rDock/src/rDock_2013.1_src//data/scripts/dock.prm

>  <Rbt.Receptor>
/home/ziqiaoxu/icml18-jtnn/VAEdesign/targets/RdRp-SARS-CoV-2/pocket_docking.prm

>  <SCORE>
-15.6973

>  <SCORE.INTER>
-16.9718

>  <SCORE.INTER.CONST>
1

>  <SCORE.INTER.POLAR>
0

>  <SCORE.INTER.REPUL>
0

>  <SCORE.INTER.ROT>
5

>  <SCORE.INTER.VDW>
-27.3718

>  <SCORE.INTER.norm>
-0.67887

>  <SCORE.INTRA>
1.27441

>  <SCORE.INTRA.DIHEDRAL>
4.29713

>  <SCORE.INTRA.DIHEDRAL.0>
4.56788

>  <SCORE.INTRA.POLAR>
0

>  <SCORE.INTRA.POLAR.0>
0

>  <SCORE.INTRA.REPUL>
0

>  <SCORE.INTRA.REPUL.0>
0

>  <SCORE.INTRA.VDW>
-0.874152

>  <SCORE.INTRA.VDW.0>
-0.88146

>  <SCORE.INTRA.norm>
0.0509766

>  <SCORE.RESTR>
0

>  <SCORE.RESTR.CAVITY>
0

>  <SCORE.RESTR.norm>
0

>  <SCORE.SYSTEM>
0

>  <SCORE.SYSTEM.CONST>
0

>  <SCORE.SYSTEM.DIHEDRAL>
0

>  <SCORE.SYSTEM.norm>
0

>  <SCORE.heavy>
25

>  <SCORE.norm>
-0.627894

$$$$
design_10
 OpenBabel05252019093D

 24 26  0  0  0  0  0  0  0  0999 V2000
   38.6726  -41.3722    7.1634 C   0  0  0  0  0  0  0  0  0  0  0  0
   37.4378  -41.8265    6.6327 N   0  0  0  0  0  0  0  0  0  0  0  0
   36.4172  -40.9877    6.2971 C   0  0  0  0  0  0  0  0  0  0  0  0
   35.3437  -41.7018    5.8096 C   0  0  0  0  0  0  0  0  0  0  0  0
   35.7708  -43.0312    5.8675 C   0  0  0  0  0  0  0  0  0  0  0  0
   37.0308  -43.0564    6.3667 C   0  0  0  0  0  0  0  0  0  0  0  0
   37.8437  -44.2622    6.5860 C   0  0  0  0  0  0  0  0  0  0  0  0
   39.0529  -44.1949    6.8260 O   0  0  0  0  0  0  0  0  0  0  0  0
   37.2191  -45.5200    6.5188 N   0  0  0  0  0  0  0  0  0  0  0  0
   37.7772  -46.8061    6.6894 C   0  0  0  0  0  0  0  0  0  0  0  0
   37.7557  -47.8044    5.7530 C   0  0  0  0  0  0  0  0  0  0  0  0
   38.3165  -49.0685    5.9793 C   0  0  0  0  0  0  0  0  0  0  0  0
   38.9162  -49.3393    7.1796 C   0  0  0  0  0  0  0  0  0  0  0  0
   38.9641  -48.3671    8.1556 C   0  0  0  0  0  0  0  0  0  0  0  0
   38.4052  -47.1408    7.8998 C   0  0  0  0  0  0  0  0  0  0  0  0
   38.4146  -46.0758    8.9517 C   0  0  0  0  0  0  0  0  0  0  0  0
   39.9438  -45.9608    9.8405 S   0  0  0  0  0  0  0  0  0  0  0  0
   41.3926  -45.5823    8.9259 C   0  0  0  0  0  0  0  0  0  0  0  0
   41.5523  -46.2492    7.7091 C   0  0  0  0  0  0  0  0  0  0  0  0
   42.6703  -46.0239    6.9550 C   0  0  0  0  0  0  0  0  0  0  0  0
   43.6660  -45.1504    7.3508 C   0  0  0  0  0  0  0  0  0  0  0  0
   43.5151  -44.4908    8.5484 C   0  0  0  0  0  0  0  0  0  0  0  0
   42.3642  -44.7186    9.3324 C   0  0  0  0  0  0  0  0  0  0  0  0
   42.2735  -44.0696   10.5169 F   0  0  0  0  0  0  0  0  0  0  0  0
  1  2  1  0  0  0  0
  2  3  1  0  0  0  0
  3  4  2  0  0  0  0
  4  5  1  0  0  0  0
  5  6  2  0  0  0  0
  6  7  1  0  0  0  0
  6  2  1  0  0  0  0
  7  8  2  0  0  0  0
  7  9  1  0  0  0  0
  9 10  1  0  0  0  0
 10 11  2  0  0  0  0
 11 12  1  0  0  0  0
 12 13  2  0  0  0  0
 13 14  1  0  0  0  0
 14 15  2  0  0  0  0
 15 16  1  0  0  0  0
 15 10  1  0  0  0  0
 16 17  1  0  0  0  0
 17 18  1  0  0  0  0
 18 19  2  0  0  0  0
 19 20  1  0  0  0  0
 20 21  2  0  0  0  0
 21 22  1  0  0  0  0
 22 23  2  0  0  0  0
 23 24  1  0  0  0  0
 23 18  1  0  0  0  0
M  END
>  <CHROM.1>
-12.47166633,-121.18537833,-139.53642646,60.76887723,-43.35057651,39.26693118
-45.10822886,7.58699026,-2.61253256,0.45774441,-3.11316808

>  <Name>
design_10

>  <RI>
0

>  <Rbt.Current_Directory>
/home/ziqiaoxu/icml18-jtnn/VAEdesign

>  <Rbt.Executable>
rbdock ($Id: //depot/dev/client3/rdock/2013.1/src/exe/rbdock.cxx#4 $)

>  <Rbt.Library>
libRbt.so (2013.1, Build901 2013/11/27)

>  <Rbt.Parameter_File>
/export/apps/rDock/src/rDock_2013.1_src//data/scripts/dock.prm

>  <Rbt.Receptor>
/home/ziqiaoxu/icml18-jtnn/VAEdesign/targets/RdRp-SARS-CoV-2/pocket_docking.prm

>  <SCORE>
-15.3821

>  <SCORE.INTER>
-16.9655

>  <SCORE.INTER.CONST>
1

>  <SCORE.INTER.POLAR>
0

>  <SCORE.INTER.REPUL>
0

>  <SCORE.INTER.ROT>
5

>  <SCORE.INTER.VDW>
-27.3655

>  <SCORE.INTER.norm>
-0.706894

>  <SCORE.INTRA>
1.58339

>  <SCORE.INTRA.DIHEDRAL>
9.67252

>  <SCORE.INTRA.DIHEDRAL.0>
2.93573

>  <SCORE.INTRA.POLAR>
0

>  <SCORE.INTRA.POLAR.0>
0

>  <SCORE.INTRA.REPUL>
0

>  <SCORE.INTRA.REPUL.0>
0

>  <SCORE.INTRA.VDW>
-3.25287

>  <SCORE.INTRA.VDW.0>
0.81074

>  <SCORE.INTRA.norm>
0.0659746

>  <SCORE.RESTR>
0

>  <SCORE.RESTR.CAVITY>
0

>  <SCORE.RESTR.norm>
0

>  <SCORE.SYSTEM>
0

>  <SCORE.SYSTEM.CONST>
0

>  <SCORE.SYSTEM.DIHEDRAL>
0

>  <SCORE.SYSTEM.norm>
0

>  <SCORE.heavy>
24

>  <SCORE.norm>
-0.640919

$$$$
design_4
 OpenBabel05252019093D

 22 24  0  0  0  0  0  0  0  0999 V2000
   40.9841  -41.4963    8.0831 O   0  0  0  0  0  0  0  0  0  0  0  0
   40.3538  -40.8444    8.9472 C   0  0  0  0  0  0  0  0  0  0  0  0
   39.5594  -41.4727    9.9478 N   0  0  0  0  0  0  0  0  0  0  0  0
   39.4200  -42.9028   10.0470 C   0  0  0  0  0  0  0  0  0  0  0  0
   40.6069  -43.4946   10.7380 C   0  0  0  0  0  0  0  0  0  0  0  0
   41.5567  -44.1526    9.7969 C   0  0  0  0  0  0  0  0  0  0  0  0
   40.9123  -45.3261    9.1104 C   0  0  0  0  0  0  0  0  0  0  0  0
   41.0652  -45.7958    7.9005 N   0  0  0  0  0  0  0  0  0  0  0  0
   40.4013  -46.8364    7.4931 C   0  0  0  0  0  0  0  0  0  0  0  0
   40.4860  -47.4271    6.2159 C   0  0  0  0  0  0  0  0  0  0  0  0
   39.7318  -48.5136    5.9293 C   0  0  0  0  0  0  0  0  0  0  0  0
   38.8449  -49.1304    6.8055 C   0  0  0  0  0  0  0  0  0  0  0  0
   38.7669  -48.5430    8.0612 C   0  0  0  0  0  0  0  0  0  0  0  0
   39.5354  -47.4186    8.3856 C   0  0  0  0  0  0  0  0  0  0  0  0
   39.7409  -46.4182    9.7581 S   0  0  0  0  0  0  0  0  0  0  0  0
   40.4533  -39.4227    8.9039 N   0  0  0  0  0  0  0  0  0  0  0  0
   41.2471  -38.7378    7.9080 C   0  0  0  0  0  0  0  0  0  0  0  0
   40.3807  -38.4729    6.7133 C   0  0  0  0  0  0  0  0  0  0  0  0
   40.1171  -37.2428    6.1599 C   0  0  0  0  0  0  0  0  0  0  0  0
   39.2732  -37.5019    5.0843 C   0  0  0  0  0  0  0  0  0  0  0  0
   39.0402  -38.8144    4.9935 N   0  0  0  0  0  0  0  0  0  0  0  0
   39.7122  -39.3835    5.9788 N   0  0  0  0  0  0  0  0  0  0  0  0
  1  2  2  0  0  0  0
  2  3  1  0  0  0  0
  2 16  1  0  0  0  0
  3  4  1  0  0  0  0
  4  5  1  0  0  0  0
  5  6  1  0  0  0  0
  6  7  1  0  0  0  0
  7  8  2  0  0  0  0
  8  9  1  0  0  0  0
  9 10  2  0  0  0  0
 10 11  1  0  0  0  0
 11 12  2  0  0  0  0
 12 13  1  0  0  0  0
 13 14  2  0  0  0  0
 14 15  1  0  0  0  0
 14  9  1  0  0  0  0
 15  7  1  0  0  0  0
 16 17  1  0  0  0  0
 17 18  1  0  0  0  0
 18 19  1  0  0  0  0
 19 20  2  0  0  0  0
 20 21  1  0  0  0  0
 21 22  1  0  0  0  0
 22 18  2  0  0  0  0
M  END
>  <CHROM.1>
80.40013714,-103.25272595,-63.62235946,145.58950309,89.46414955,122.34780809
40.07926655,-43.24572540,7.99483731,-1.43743627,1.37162756,2.87747563

>  <Name>
design_4

>  <RI>
0

>  <Rbt.Current_Directory>
/home/ziqiaoxu/icml18-jtnn/VAEdesign

>  <Rbt.Executable>
rbdock ($Id: //depot/dev/client3/rdock/2013.1/src/exe/rbdock.cxx#4 $)

>  <Rbt.Library>
libRbt.so (2013.1, Build901 2013/11/27)

>  <Rbt.Parameter_File>
/export/apps/rDock/src/rDock_2013.1_src//data/scripts/dock.prm

>  <Rbt.Receptor>
/home/ziqiaoxu/icml18-jtnn/VAEdesign/targets/RdRp-SARS-CoV-2/pocket_docking.prm

>  <SCORE>
-24.9021

>  <SCORE.INTER>
-26.2295

>  <SCORE.INTER.CONST>
1

>  <SCORE.INTER.POLAR>
-3.02111

>  <SCORE.INTER.REPUL>
0

>  <SCORE.INTER.ROT>
6

>  <SCORE.INTER.VDW>
-27.3577

>  <SCORE.INTER.norm>
-1.19225

>  <SCORE.INTRA>
1.32702

>  <SCORE.INTRA.DIHEDRAL>
4.56371

>  <SCORE.INTRA.DIHEDRAL.0>
4.01396

>  <SCORE.INTRA.POLAR>
0

>  <SCORE.INTRA.POLAR.0>
0

>  <SCORE.INTRA.REPUL>
0

>  <SCORE.INTRA.REPUL.0>
0

>  <SCORE.INTRA.VDW>
-0.954832

>  <SCORE.INTRA.VDW.0>
-0.695323

>  <SCORE.INTRA.norm>
0.0603193

>  <SCORE.RESTR>
0.000413804

>  <SCORE.RESTR.CAVITY>
0.000413804

>  <SCORE.RESTR.norm>
1.88093e-05

>  <SCORE.SYSTEM>
0

>  <SCORE.SYSTEM.CONST>
0

>  <SCORE.SYSTEM.DIHEDRAL>
0

>  <SCORE.SYSTEM.norm>
0

>  <SCORE.heavy>
22

>  <SCORE.norm>
-1.13191

$$$$
design_14
 OpenBabel05252019093D

 22 24  0  0  0  0  0  0  0  0999 V2000
   38.9261  -48.3341    7.4631 C   0  0  0  0  0  0  0  0  0  0  0  0
   39.8525  -47.3166    8.0900 C   0  0  0  0  0  0  0  0  0  0  0  0
   41.0004  -46.8597    7.6308 N   0  0  0  0  0  0  0  0  0  0  0  0
   41.6750  -45.9750    8.3086 C   0  0  0  0  0  0  0  0  0  0  0  0
   42.9616  -45.4470    7.7613 C   0  0  0  0  0  0  0  0  0  0  0  0
   43.4440  -45.7656    6.5322 C   0  0  0  0  0  0  0  0  0  0  0  0
   44.6614  -45.2501    6.0882 C   0  0  0  0  0  0  0  0  0  0  0  0
   45.3820  -44.4101    6.9006 C   0  0  0  0  0  0  0  0  0  0  0  0
   44.9237  -44.0644    8.1539 C   0  0  0  0  0  0  0  0  0  0  0  0
   43.7214  -44.5910    8.5580 C   0  0  0  0  0  0  0  0  0  0  0  0
   41.1476  -45.5512    9.4936 C   0  0  0  0  0  0  0  0  0  0  0  0
   41.6410  -44.5578   10.5048 C   0  0  0  0  0  0  0  0  0  0  0  0
   40.6583  -43.4689   10.5789 N   0  0  0  0  0  0  0  0  0  0  0  0
   40.3028  -42.7118    9.4399 C   0  0  0  0  0  0  0  0  0  0  0  0
   40.8674  -43.0086    8.3420 O   0  0  0  0  0  0  0  0  0  0  0  0
   39.3181  -41.6272    9.5349 C   0  0  0  0  0  0  0  0  0  0  0  0
   39.7877  -40.4887    8.6675 C   0  0  0  0  0  0  0  0  0  0  0  0
   40.5277  -39.3948    9.0283 C   0  0  0  0  0  0  0  0  0  0  0  0
   40.8243  -38.5106    8.0731 C   0  0  0  0  0  0  0  0  0  0  0  0
   40.3657  -38.7664    6.8079 C   0  0  0  0  0  0  0  0  0  0  0  0
   39.5310  -40.2437    7.0013 S   0  0  0  0  0  0  0  0  0  0  0  0
   39.6822  -46.4730    9.5597 S   0  0  0  0  0  0  0  0  0  0  0  0
  1  2  1  0  0  0  0
  2  3  2  0  0  0  0
  3  4  1  0  0  0  0
  4  5  1  0  0  0  0
  4 11  2  0  0  0  0
  5  6  2  0  0  0  0
  6  7  1  0  0  0  0
  7  8  2  0  0  0  0
  8  9  1  0  0  0  0
  9 10  2  0  0  0  0
 10  5  1  0  0  0  0
 11 12  1  0  0  0  0
 11 22  1  0  0  0  0
 12 13  1  0  0  0  0
 13 14  1  0  0  0  0
 14 15  2  0  0  0  0
 14 16  1  0  0  0  0
 16 17  1  0  0  0  0
 17 18  2  0  0  0  0
 18 19  1  0  0  0  0
 19 20  2  0  0  0  0
 20 21  1  0  0  0  0
 21 17  1  0  0  0  0
 22  2  1  0  0  0  0
M  END
>  <CHROM.1>
4.78808289,117.63665380,-57.87411813,140.63366021,-93.93669629,41.18350577
-43.72621090,8.30892804,1.34738513,-0.36236884,3.04117009

>  <Name>
design_14

>  <RI>
0

>  <Rbt.Current_Directory>
/home/ziqiaoxu/icml18-jtnn/VAEdesign

>  <Rbt.Executable>
rbdock ($Id: //depot/dev/client3/rdock/2013.1/src/exe/rbdock.cxx#4 $)

>  <Rbt.Library>
libRbt.so (2013.1, Build901 2013/11/27)

>  <Rbt.Parameter_File>
/export/apps/rDock/src/rDock_2013.1_src//data/scripts/dock.prm

>  <Rbt.Receptor>
/home/ziqiaoxu/icml18-jtnn/VAEdesign/targets/RdRp-SARS-CoV-2/pocket_docking.prm

>  <SCORE>
-24.7138

>  <SCORE.INTER>
-19.2283

>  <SCORE.INTER.CONST>
1

>  <SCORE.INTER.POLAR>
-0.668465

>  <SCORE.INTER.REPUL>
0

>  <SCORE.INTER.ROT>
5

>  <SCORE.INTER.VDW>
-27.3555

>  <SCORE.INTER.norm>
-0.874014

>  <SCORE.INTRA>
-5.49071

>  <SCORE.INTRA.DIHEDRAL>
-9.93487

>  <SCORE.INTRA.DIHEDRAL.0>
13.9337

>  <SCORE.INTRA.POLAR>
0

>  <SCORE.INTRA.POLAR.0>
0

>  <SCORE.INTRA.REPUL>
0

>  <SCORE.INTRA.REPUL.0>
0

>  <SCORE.INTRA.VDW>
-0.523274

>  <SCORE.INTRA.VDW.0>
-0.794917

>  <SCORE.INTRA.norm>
-0.249578

>  <SCORE.RESTR>
0.00524945

>  <SCORE.RESTR.CAVITY>
0.00524945

>  <SCORE.RESTR.norm>
0.000238612

>  <SCORE.SYSTEM>
0

>  <SCORE.SYSTEM.CONST>
0

>  <SCORE.SYSTEM.DIHEDRAL>
0

>  <SCORE.SYSTEM.norm>
0

>  <SCORE.heavy>
22

>  <SCORE.norm>
-1.12335

$$$$
design_0
 OpenBabel05252019093D

 22 24  0  0  0  0  0  0  0  0999 V2000
   34.6745  -40.2652    6.5427 C   0  0  0  0  0  0  0  0  0  0  0  0
   35.1151  -41.2304    5.6697 O   0  0  0  0  0  0  0  0  0  0  0  0
   35.7012  -42.3342    6.2784 C   0  0  0  0  0  0  0  0  0  0  0  0
   36.0455  -43.3125    5.2092 C   0  0  0  0  0  0  0  0  0  0  0  0
   36.7996  -44.4334    5.6010 N   0  0  0  0  0  0  0  0  0  0  0  0
   38.1846  -44.3281    5.4802 C   0  0  0  0  0  0  0  0  0  0  0  0
   38.9982  -45.5802    5.4591 C   0  0  0  0  0  0  0  0  0  0  0  0
   38.2142  -46.7897    5.4811 N   0  0  0  0  0  0  0  0  0  0  0  0
   38.6367  -48.0162    6.0269 C   0  0  0  0  0  0  0  0  0  0  0  0
   37.8650  -49.0204    5.9907 O   0  0  0  0  0  0  0  0  0  0  0  0
   39.9617  -48.2132    6.6589 C   0  0  0  0  0  0  0  0  0  0  0  0
   40.1359  -47.2615    7.8302 C   0  0  0  0  0  0  0  0  0  0  0  0
   39.1941  -47.2594    8.8245 C   0  0  0  0  0  0  0  0  0  0  0  0
   39.7725  -46.0820    9.9130 S   0  0  0  0  0  0  0  0  0  0  0  0
   41.1874  -45.6176    9.0925 C   0  0  0  0  0  0  0  0  0  0  0  0
   42.2061  -44.6848    9.3651 C   0  0  0  0  0  0  0  0  0  0  0  0
   43.2553  -44.5190    8.4992 C   0  0  0  0  0  0  0  0  0  0  0  0
   43.2413  -45.3181    7.3627 C   0  0  0  0  0  0  0  0  0  0  0  0
   42.2598  -46.2276    7.0853 C   0  0  0  0  0  0  0  0  0  0  0  0
   41.1800  -46.3992    7.9741 C   0  0  0  0  0  0  0  0  0  0  0  0
   36.8886  -46.7024    4.8973 C   0  0  0  0  0  0  0  0  0  0  0  0
   36.1787  -45.6767    5.7467 C   0  0  0  0  0  0  0  0  0  0  0  0
  1  2  1  0  0  0  0
  2  3  1  0  0  0  0
  3  4  1  0  0  0  0
  4  5  1  0  0  0  0
  5  6  1  0  0  0  0
  6  7  1  0  0  0  0
  7  8  1  0  0  0  0
  8  9  1  0  0  0  0
  8 21  1  0  0  0  0
  9 10  2  0  0  0  0
  9 11  1  0  0  0  0
 11 12  1  0  0  0  0
 12 13  2  0  0  0  0
 13 14  1  0  0  0  0
 14 15  1  0  0  0  0
 15 16  2  0  0  0  0
 16 17  1  0  0  0  0
 17 18  2  0  0  0  0
 18 19  1  0  0  0  0
 19 20  2  0  0  0  0
 20 12  1  0  0  0  0
 20 15  1  0  0  0  0
 21 22  1  0  0  0  0
 22  5  1  0  0  0  0
M  END
>  <CHROM.1>
176.65272268,172.45034356,-92.99104273,58.93558002,54.80560214,38.81711066
-45.40047913,6.97861553,-2.74261072,0.54794328,-2.86126138

>  <Name>
design_0

>  <RI>
0

>  <Rbt.Current_Directory>
/home/ziqiaoxu/icml18-jtnn/VAEdesign

>  <Rbt.Executable>
rbdock ($Id: //depot/dev/client3/rdock/2013.1/src/exe/rbdock.cxx#4 $)

>  <Rbt.Library>
libRbt.so (2013.1, Build901 2013/11/27)

>  <Rbt.Parameter_File>
/export/apps/rDock/src/rDock_2013.1_src//data/scripts/dock.prm

>  <Rbt.Receptor>
/home/ziqiaoxu/icml18-jtnn/VAEdesign/targets/RdRp-SARS-CoV-2/pocket_docking.prm

>  <SCORE>
-18.7697

>  <SCORE.INTER>
-16.7312

>  <SCORE.INTER.CONST>
1

>  <SCORE.INTER.POLAR>
0

>  <SCORE.INTER.REPUL>
0.0439598

>  <SCORE.INTER.ROT>
5

>  <SCORE.INTER.VDW>
-27.351

>  <SCORE.INTER.norm>
-0.760511

>  <SCORE.INTRA>
-2.03849

>  <SCORE.INTRA.DIHEDRAL>
3.13633

>  <SCORE.INTRA.DIHEDRAL.0>
2.80593

>  <SCORE.INTRA.POLAR>
0

>  <SCORE.INTRA.POLAR.0>
0

>  <SCORE.INTRA.REPUL>
0

>  <SCORE.INTRA.REPUL.0>
0

>  <SCORE.INTRA.VDW>
-3.60665

>  <SCORE.INTRA.VDW.0>
1.66388

>  <SCORE.INTRA.norm>
-0.0926585

>  <SCORE.RESTR>
0

>  <SCORE.RESTR.CAVITY>
0

>  <SCORE.RESTR.norm>
0

>  <SCORE.SYSTEM>
0

>  <SCORE.SYSTEM.CONST>
0

>  <SCORE.SYSTEM.DIHEDRAL>
0

>  <SCORE.SYSTEM.norm>
0

>  <SCORE.heavy>
22

>  <SCORE.norm>
-0.853169

$$$$
design_11
 OpenBabel05252019093D

 24 25  0  0  0  0  0  0  0  0999 V2000
   44.8861  -45.3990    5.7562 C   0  0  0  0  0  0  0  0  0  0  0  0
   43.7217  -45.5939    6.7310 C   0  0  0  0  0  0  0  0  0  0  0  0
   43.9607  -45.2677    7.8978 O   0  0  0  0  0  0  0  0  0  0  0  0
   42.5229  -46.1166    6.2966 N   0  0  0  0  0  0  0  0  0  0  0  0
   41.3027  -46.4111    6.9079 C   0  0  0  0  0  0  0  0  0  0  0  0
   41.2186  -46.3432    8.2634 C   0  0  0  0  0  0  0  0  0  0  0  0
   39.9856  -46.6055    8.8490 C   0  0  0  0  0  0  0  0  0  0  0  0
   38.9073  -46.9242    8.0498 C   0  0  0  0  0  0  0  0  0  0  0  0
   39.0104  -46.9998    6.6835 C   0  0  0  0  0  0  0  0  0  0  0  0
   37.7134  -47.4140    5.9699 C   0  0  0  0  0  0  0  0  0  0  0  0
   37.5595  -48.5631    5.7122 O   0  0  0  0  0  0  0  0  0  0  0  0
   36.8729  -46.3357    5.6951 N   0  0  0  0  0  0  0  0  0  0  0  0
   36.0313  -45.2945    5.4141 C   0  0  0  0  0  0  0  0  0  0  0  0
   36.5398  -43.9467    5.8357 C   0  0  0  0  0  0  0  0  0  0  0  0
   37.8253  -43.7082    6.2928 C   0  0  0  0  0  0  0  0  0  0  0  0
   38.1975  -42.4409    6.6708 C   0  0  0  0  0  0  0  0  0  0  0  0
   37.3117  -41.3823    6.6053 C   0  0  0  0  0  0  0  0  0  0  0  0
   36.0154  -41.6103    6.1421 C   0  0  0  0  0  0  0  0  0  0  0  0
   34.8450  -40.3287    6.0505 S   0  0  0  0  0  0  0  0  0  0  0  0
   33.2240  -41.0045    5.9825 N   0  0  0  0  0  0  0  0  0  0  0  0
   35.0633  -39.4074    4.8922 O   0  0  0  0  0  0  0  0  0  0  0  0
   34.9108  -39.4886    7.3179 O   0  0  0  0  0  0  0  0  0  0  0  0
   35.6646  -42.8955    5.7664 C   0  0  0  0  0  0  0  0  0  0  0  0
   40.1982  -46.7432    6.0940 C   0  0  0  0  0  0  0  0  0  0  0  0
  1  2  1  0  0  0  0
  2  3  2  0  0  0  0
  2  4  1  0  0  0  0
  4  5  1  0  0  0  0
  5  6  2  0  0  0  0
  6  7  1  0  0  0  0
  7  8  2  0  0  0  0
  8  9  1  0  0  0  0
  9 10  1  0  0  0  0
  9 24  2  0  0  0  0
 10 11  2  0  0  0  0
 10 12  1  0  0  0  0
 12 13  1  0  0  0  0
 13 14  1  0  0  0  0
 14 15  2  0  0  0  0
 15 16  1  0  0  0  0
 16 17  2  0  0  0  0
 17 18  1  0  0  0  0
 18 19  1  0  0  0  0
 18 23  2  0  0  0  0
 19 20  1  0  0  0  0
 19 21  2  0  0  0  0
 19 22  2  0  0  0  0
 23 14  1  0  0  0  0
 24  5  1  0  0  0  0
M  END
>  <CHROM.1>
-9.25033456,-94.62571618,-178.36725999,9.18238413,-160.31580026,-152.72883082
38.24336919,-44.14576333,6.44534764,-0.66883458,-0.14217860,0.01871336

>  <Name>
design_11

>  <RI>
0

>  <Rbt.Current_Directory>
/home/ziqiaoxu/icml18-jtnn/VAEdesign

>  <Rbt.Executable>
rbdock ($Id: //depot/dev/client3/rdock/2013.1/src/exe/rbdock.cxx#4 $)

>  <Rbt.Library>
libRbt.so (2013.1, Build901 2013/11/27)

>  <Rbt.Parameter_File>
/export/apps/rDock/src/rDock_2013.1_src//data/scripts/dock.prm

>  <Rbt.Receptor>
/home/ziqiaoxu/icml18-jtnn/VAEdesign/targets/RdRp-SARS-CoV-2/pocket_docking.prm

>  <SCORE>
-24.3885

>  <SCORE.INTER>
-24.4747

>  <SCORE.INTER.CONST>
1

>  <SCORE.INTER.POLAR>
-2.53131

>  <SCORE.INTER.REPUL>
0.0163523

>  <SCORE.INTER.ROT>
6

>  <SCORE.INTER.VDW>
-27.35

>  <SCORE.INTER.norm>
-1.01978

>  <SCORE.INTRA>
0.0814808

>  <SCORE.INTRA.DIHEDRAL>
0.827296

>  <SCORE.INTRA.DIHEDRAL.0>
15.1045

>  <SCORE.INTRA.POLAR>
0

>  <SCORE.INTRA.POLAR.0>
0

>  <SCORE.INTRA.REPUL>
0

>  <SCORE.INTRA.REPUL.0>
0

>  <SCORE.INTRA.VDW>
-0.332167

>  <SCORE.INTRA.VDW.0>
-2.35794

>  <SCORE.INTRA.norm>
0.00339503

>  <SCORE.RESTR>
0.004717

>  <SCORE.RESTR.CAVITY>
0.004717

>  <SCORE.RESTR.norm>
0.000196542

>  <SCORE.SYSTEM>
0

>  <SCORE.SYSTEM.CONST>
0

>  <SCORE.SYSTEM.DIHEDRAL>
0

>  <SCORE.SYSTEM.norm>
0

>  <SCORE.heavy>
24

>  <SCORE.norm>
-1.01619

$$$$
design_1
 OpenBabel05252019093D

 23 26  0  0  0  0  0  0  0  0999 V2000
   38.6727  -40.9123    9.0807 O   0  0  0  0  0  0  0  0  0  0  0  0
   39.8379  -41.1566    8.6779 C   0  0  0  0  0  0  0  0  0  0  0  0
   40.5543  -42.2070    9.2559 N   0  0  0  0  0  0  0  0  0  0  0  0
   40.1111  -43.0869   10.3040 C   0  0  0  0  0  0  0  0  0  0  0  0
   40.9489  -44.3221   10.4157 C   0  0  0  0  0  0  0  0  0  0  0  0
   40.5076  -45.3777    9.5015 C   0  0  0  0  0  0  0  0  0  0  0  0
   41.1015  -45.6901    8.3367 N   0  0  0  0  0  0  0  0  0  0  0  0
   40.4769  -46.6862    7.7307 C   0  0  0  0  0  0  0  0  0  0  0  0
   40.6410  -47.3861    6.5612 C   0  0  0  0  0  0  0  0  0  0  0  0
   39.7818  -48.4075    6.2098 C   0  0  0  0  0  0  0  0  0  0  0  0
   38.7407  -48.7240    7.0573 C   0  0  0  0  0  0  0  0  0  0  0  0
   38.5470  -48.0405    8.2411 C   0  0  0  0  0  0  0  0  0  0  0  0
   39.4124  -47.0347    8.5630 C   0  0  0  0  0  0  0  0  0  0  0  0
   39.4647  -46.2107    9.6371 N   0  0  0  0  0  0  0  0  0  0  0  0
   40.3567  -40.2858    7.6004 C   0  0  1  0  0  0  0  0  0  0  0  0
   39.3742  -40.1918    6.4622 C   0  0  0  0  0  0  0  0  0  0  0  0
   39.5665  -38.9349    5.7261 C   0  0  0  0  0  0  0  0  0  0  0  0
   39.3258  -38.6694    4.3601 C   0  0  0  0  0  0  0  0  0  0  0  0
   39.5280  -37.4479    3.7961 C   0  0  0  0  0  0  0  0  0  0  0  0
   39.9865  -36.4029    4.5609 C   0  0  0  0  0  0  0  0  0  0  0  0
   40.2346  -36.6390    5.9223 C   0  0  0  0  0  0  0  0  0  0  0  0
   40.0242  -37.8784    6.4695 C   0  0  0  0  0  0  0  0  0  0  0  0
   40.2665  -38.5100    8.1255 S   0  0  0  0  0  0  0  0  0  0  0  0
  1  2  2  0  0  0  0
  2  3  1  0  0  0  0
  3  4  1  0  0  0  0
  4  5  1  0  0  0  0
  5  6  1  0  0  0  0
  6  7  2  0  0  0  0
  7  8  1  0  0  0  0
  8  9  2  0  0  0  0
  9 10  1  0  0  0  0
 10 11  2  0  0  0  0
 11 12  1  0  0  0  0
 12 13  2  0  0  0  0
 13 14  1  0  0  0  0
 13  8  1  0  0  0  0
 14  6  1  0  0  0  0
 15  2  1  1  0  0  0
 15 16  1  0  0  0  0
 16 17  1  0  0  0  0
 17 18  2  0  0  0  0
 18 19  1  0  0  0  0
 19 20  2  0  0  0  0
 20 21  1  0  0  0  0
 21 22  2  0  0  0  0
 22 23  1  0  0  0  0
 22 17  1  0  0  0  0
 23 15  1  0  0  0  0
M  END
>  <CHROM.1>
163.57815128,-85.43681713,101.90818277,-50.34605180,39.90760744,-42.38456504
7.59245552,-1.51862769,1.42805757,2.86003408

>  <Name>
design_1

>  <RI>
0

>  <Rbt.Current_Directory>
/home/ziqiaoxu/icml18-jtnn/VAEdesign

>  <Rbt.Executable>
rbdock ($Id: //depot/dev/client3/rdock/2013.1/src/exe/rbdock.cxx#4 $)

>  <Rbt.Library>
libRbt.so (2013.1, Build901 2013/11/27)

>  <Rbt.Parameter_File>
/export/apps/rDock/src/rDock_2013.1_src//data/scripts/dock.prm

>  <Rbt.Receptor>
/home/ziqiaoxu/icml18-jtnn/VAEdesign/targets/RdRp-SARS-CoV-2/pocket_docking.prm

>  <SCORE>
-19.1531

>  <SCORE.INTER>
-21.3274

>  <SCORE.INTER.CONST>
1

>  <SCORE.INTER.POLAR>
-0.993668

>  <SCORE.INTER.REPUL>
0

>  <SCORE.INTER.ROT>
4

>  <SCORE.INTER.VDW>
-27.3489

>  <SCORE.INTER.norm>
-0.927276

>  <SCORE.INTRA>
2.17424

>  <SCORE.INTRA.DIHEDRAL>
3.65527

>  <SCORE.INTRA.DIHEDRAL.0>
3.33622

>  <SCORE.INTRA.POLAR>
0

>  <SCORE.INTRA.POLAR.0>
0

>  <SCORE.INTRA.REPUL>
0

>  <SCORE.INTRA.REPUL.0>
0

>  <SCORE.INTRA.VDW>
0.346604

>  <SCORE.INTRA.VDW.0>
-1.02269

>  <SCORE.INTRA.norm>
0.0945322

>  <SCORE.RESTR>
0

>  <SCORE.RESTR.CAVITY>
0

>  <SCORE.RESTR.norm>
0

>  <SCORE.SYSTEM>
0

>  <SCORE.SYSTEM.CONST>
0

>  <SCORE.SYSTEM.DIHEDRAL>
0

>  <SCORE.SYSTEM.norm>
0

>  <SCORE.heavy>
23

>  <SCORE.norm>
-0.832744

$$$$
design_17
 OpenBabel05252019093D

 25 27  0  0  0  0  0  0  0  0999 V2000
   38.0698  -47.3867    8.4659 C   0  0  0  0  0  0  0  0  0  0  0  0
   39.4060  -46.7334    8.5280 C   0  0  0  0  0  0  0  0  0  0  0  0
   40.4018  -46.9920    7.6129 C   0  0  0  0  0  0  0  0  0  0  0  0
   41.6470  -46.3735    7.6887 C   0  0  0  0  0  0  0  0  0  0  0  0
   41.8932  -45.4740    8.7111 C   0  0  0  0  0  0  0  0  0  0  0  0
   40.9195  -45.1844    9.6542 C   0  0  0  0  0  0  0  0  0  0  0  0
   41.1942  -44.2192   10.7561 C   0  0  0  0  0  0  0  0  0  0  0  0
   40.4370  -43.0044   10.5891 N   0  0  0  0  0  0  0  0  0  0  0  0
   39.9777  -42.5306    9.3384 C   0  0  0  0  0  0  0  0  0  0  0  0
   40.1963  -43.1359    8.2587 O   0  0  0  0  0  0  0  0  0  0  0  0
   39.2333  -41.3156    9.2895 N   0  0  0  0  0  0  0  0  0  0  0  0
   38.7544  -40.8163    8.0208 C   0  0  0  0  0  0  0  0  0  0  0  0
   39.4809  -39.5573    7.6318 C   0  0  0  0  0  0  0  0  0  0  0  0
   40.5910  -39.0147    8.2387 C   0  0  0  0  0  0  0  0  0  0  0  0
   40.9081  -37.9008    7.5684 N   0  0  0  0  0  0  0  0  0  0  0  0
   40.0667  -37.6877    6.5591 N   0  0  0  0  0  0  0  0  0  0  0  0
   40.1389  -36.5617    5.6378 C   0  0  0  0  0  0  0  0  0  0  0  0
   40.3598  -37.0127    4.2324 C   0  0  0  0  0  0  0  0  0  0  0  0
   41.1104  -38.1178    3.9050 C   0  0  0  0  0  0  0  0  0  0  0  0
   41.2954  -38.5041    2.5794 C   0  0  0  0  0  0  0  0  0  0  0  0
   40.7116  -37.7606    1.5777 C   0  0  0  0  0  0  0  0  0  0  0  0
   39.9533  -36.6456    1.8975 C   0  0  0  0  0  0  0  0  0  0  0  0
   39.7734  -36.2674    3.2049 C   0  0  0  0  0  0  0  0  0  0  0  0
   39.1855  -38.7006    6.5897 C   0  0  0  0  0  0  0  0  0  0  0  0
   39.7035  -45.8191    9.5396 C   0  0  0  0  0  0  0  0  0  0  0  0
  1  2  1  0  0  0  0
  2  3  2  0  0  0  0
  3  4  1  0  0  0  0
  4  5  2  0  0  0  0
  5  6  1  0  0  0  0
  6  7  1  0  0  0  0
  6 25  2  0  0  0  0
  7  8  1  0  0  0  0
  8  9  1  0  0  0  0
  9 10  2  0  0  0  0
  9 11  1  0  0  0  0
 11 12  1  0  0  0  0
 12 13  1  0  0  0  0
 13 14  1  0  0  0  0
 14 15  2  0  0  0  0
 15 16  1  0  0  0  0
 16 17  1  0  0  0  0
 16 24  1  0  0  0  0
 17 18  1  0  0  0  0
 18 19  2  0  0  0  0
 19 20  1  0  0  0  0
 20 21  2  0  0  0  0
 21 22  1  0  0  0  0
 22 23  2  0  0  0  0
 23 18  1  0  0  0  0
 24 13  2  0  0  0  0
 25  2  1  0  0  0  0
M  END
>  <CHROM.1>
110.53814954,-25.58095897,-111.16334187,9.57877302,118.24802809,-33.84197316
40.20013471,-41.32718155,7.09964008,-1.72569395,1.48165019,-0.39327880

>  <Name>
design_17

>  <RI>
0

>  <Rbt.Current_Directory>
/home/ziqiaoxu/icml18-jtnn/VAEdesign

>  <Rbt.Executable>
rbdock ($Id: //depot/dev/client3/rdock/2013.1/src/exe/rbdock.cxx#4 $)

>  <Rbt.Library>
libRbt.so (2013.1, Build901 2013/11/27)

>  <Rbt.Parameter_File>
/export/apps/rDock/src/rDock_2013.1_src//data/scripts/dock.prm

>  <Rbt.Receptor>
/home/ziqiaoxu/icml18-jtnn/VAEdesign/targets/RdRp-SARS-CoV-2/pocket_docking.prm

>  <SCORE>
-17.8442

>  <SCORE.INTER>
-18.8796

>  <SCORE.INTER.CONST>
1

>  <SCORE.INTER.POLAR>
-0.862114

>  <SCORE.INTER.REPUL>
0

>  <SCORE.INTER.ROT>
6

>  <SCORE.INTER.VDW>
-27.3484

>  <SCORE.INTER.norm>
-0.755184

>  <SCORE.INTRA>
1.03539

>  <SCORE.INTRA.DIHEDRAL>
-0.00613792

>  <SCORE.INTRA.DIHEDRAL.0>
7.60005

>  <SCORE.INTRA.POLAR>
0

>  <SCORE.INTRA.POLAR.0>
0

>  <SCORE.INTRA.REPUL>
0

>  <SCORE.INTRA.REPUL.0>
0

>  <SCORE.INTRA.VDW>
1.03845

>  <SCORE.INTRA.VDW.0>
-2.32202

>  <SCORE.INTRA.norm>
0.0414154

>  <SCORE.RESTR>
0

>  <SCORE.RESTR.CAVITY>
0

>  <SCORE.RESTR.norm>
0

>  <SCORE.SYSTEM>
0

>  <SCORE.SYSTEM.CONST>
0

>  <SCORE.SYSTEM.DIHEDRAL>
0

>  <SCORE.SYSTEM.norm>
0

>  <SCORE.heavy>
25

>  <SCORE.norm>
-0.713769

$$$$
design_5
 OpenBabel05252019093D

 25 27  0  0  0  0  0  0  0  0999 V2000
   39.9972  -44.6971    5.9795 C   0  0  0  0  0  0  0  0  0  0  0  0
   38.5862  -45.1113    5.8168 C   0  0  0  0  0  0  0  0  0  0  0  0
   37.6292  -44.1190    5.6779 C   0  0  0  0  0  0  0  0  0  0  0  0
   36.2936  -44.4356    5.5225 C   0  0  0  0  0  0  0  0  0  0  0  0
   35.9581  -45.7702    5.5120 C   0  0  0  0  0  0  0  0  0  0  0  0
   36.9148  -46.7523    5.6506 C   0  0  0  0  0  0  0  0  0  0  0  0
   38.2606  -46.4515    5.8075 C   0  0  0  0  0  0  0  0  0  0  0  0
   39.2591  -47.5192    5.9524 C   0  0  0  0  0  0  0  0  0  0  0  0
   39.0681  -48.3880    7.1566 C   0  0  0  0  0  0  0  0  0  0  0  0
   38.8728  -47.6129    8.3706 N   0  0  0  0  0  0  0  0  0  0  0  0
   39.9083  -46.7841    8.8513 C   0  0  0  0  0  0  0  0  0  0  0  0
   41.0071  -46.6938    8.2613 O   0  0  0  0  0  0  0  0  0  0  0  0
   39.7078  -46.0306   10.0319 N   0  0  0  0  0  0  0  0  0  0  0  0
   40.7085  -45.1622   10.6000 C   0  0  0  0  0  0  0  0  0  0  0  0
   40.7173  -43.8706    9.8961 C   0  0  0  0  0  0  0  0  0  0  0  0
   39.9226  -42.8357   10.3337 C   0  0  0  0  0  0  0  0  0  0  0  0
   39.9127  -41.6055    9.6883 C   0  0  0  0  0  0  0  0  0  0  0  0
   40.7088  -41.4155    8.5939 C   0  0  0  0  0  0  0  0  0  0  0  0
   40.7163  -40.1699    7.9164 N   0  0  0  0  0  0  0  0  0  0  0  0
   40.1757  -39.0339    8.3579 C   0  0  0  0  0  0  0  0  0  0  0  0
   40.3935  -38.0729    7.4254 C   0  0  0  0  0  0  0  0  0  0  0  0
   41.0691  -38.6265    6.4129 N   0  0  0  0  0  0  0  0  0  0  0  0
   41.2620  -39.9024    6.7183 C   0  0  0  0  0  0  0  0  0  0  0  0
   41.5073  -42.4317    8.1416 C   0  0  0  0  0  0  0  0  0  0  0  0
   41.5112  -43.6679    8.7975 C   0  0  0  0  0  0  0  0  0  0  0  0
  1  2  1  0  0  0  0
  2  3  2  0  0  0  0
  3  4  1  0  0  0  0
  4  5  2  0  0  0  0
  5  6  1  0  0  0  0
  6  7  2  0  0  0  0
  7  8  1  0  0  0  0
  7  2  1  0  0  0  0
  8  9  1  0  0  0  0
  9 10  1  0  0  0  0
 10 11  1  0  0  0  0
 11 12  2  0  0  0  0
 11 13  1  0  0  0  0
 13 14  1  0  0  0  0
 14 15  1  0  0  0  0
 15 16  2  0  0  0  0
 16 17  1  0  0  0  0
 17 18  2  0  0  0  0
 18 19  1  0  0  0  0
 18 24  1  0  0  0  0
 19 20  1  0  0  0  0
 20 21  2  0  0  0  0
 21 22  1  0  0  0  0
 22 23  2  0  0  0  0
 23 19  1  0  0  0  0
 24 25  2  0  0  0  0
 25 15  1  0  0  0  0
M  END
>  <CHROM.1>
118.38396288,-48.88306697,-64.10939377,81.00631408,90.25583445,11.96446282
39.61622558,-43.94081034,7.67301218,2.09511670,0.92758598,2.84687605

>  <Name>
design_5

>  <RI>
0

>  <Rbt.Current_Directory>
/home/ziqiaoxu/icml18-jtnn/VAEdesign

>  <Rbt.Executable>
rbdock ($Id: //depot/dev/client3/rdock/2013.1/src/exe/rbdock.cxx#4 $)

>  <Rbt.Library>
libRbt.so (2013.1, Build901 2013/11/27)

>  <Rbt.Parameter_File>
/export/apps/rDock/src/rDock_2013.1_src//data/scripts/dock.prm

>  <Rbt.Receptor>
/home/ziqiaoxu/icml18-jtnn/VAEdesign/targets/RdRp-SARS-CoV-2/pocket_docking.prm

>  <SCORE>
-20.9891

>  <SCORE.INTER>
-19.073

>  <SCORE.INTER.CONST>
1

>  <SCORE.INTER.POLAR>
-0.920059

>  <SCORE.INTER.REPUL>
0

>  <SCORE.INTER.ROT>
6

>  <SCORE.INTER.VDW>
-27.3448

>  <SCORE.INTER.norm>
-0.762921

>  <SCORE.INTRA>
-1.91609

>  <SCORE.INTRA.DIHEDRAL>
-0.0415746

>  <SCORE.INTRA.DIHEDRAL.0>
4.88223

>  <SCORE.INTRA.POLAR>
0

>  <SCORE.INTRA.POLAR.0>
0

>  <SCORE.INTRA.REPUL>
0

>  <SCORE.INTRA.REPUL.0>
0

>  <SCORE.INTRA.VDW>
-1.89531

>  <SCORE.INTRA.VDW.0>
-0.425403

>  <SCORE.INTRA.norm>
-0.0766437

>  <SCORE.RESTR>
0

>  <SCORE.RESTR.CAVITY>
0

>  <SCORE.RESTR.norm>
0

>  <SCORE.SYSTEM>
0

>  <SCORE.SYSTEM.CONST>
0

>  <SCORE.SYSTEM.DIHEDRAL>
0

>  <SCORE.SYSTEM.norm>
0

>  <SCORE.heavy>
25

>  <SCORE.norm>
-0.839564

$$$$
design_13
 OpenBabel05252019093D

 26 28  0  0  0  0  0  0  0  0999 V2000
   39.8889  -46.3320   10.4262 N   0  0  0  0  0  0  0  0  0  0  0  0
   40.1186  -45.7975    9.1404 C   0  0  0  0  0  0  0  0  0  0  0  0
   40.3597  -44.5786    9.0116 O   0  0  0  0  0  0  0  0  0  0  0  0
   40.0835  -46.6287    7.9474 C   0  0  0  0  0  0  0  0  0  0  0  0
   39.3966  -47.8119    7.9941 C   0  0  0  0  0  0  0  0  0  0  0  0
   39.3627  -48.5951    6.8721 C   0  0  0  0  0  0  0  0  0  0  0  0
   40.0028  -48.1978    5.7338 C   0  0  0  0  0  0  0  0  0  0  0  0
   40.7184  -46.9945    5.6386 C   0  0  0  0  0  0  0  0  0  0  0  0
   41.3588  -46.6712    4.4296 N   0  0  0  0  0  0  0  0  0  0  0  0
   42.2705  -45.6170    4.1972 C   0  0  0  0  0  0  0  0  0  0  0  0
   42.6102  -44.8260    5.0937 O   0  0  0  0  0  0  0  0  0  0  0  0
   42.8746  -45.4034    2.8475 C   0  0  0  0  0  0  0  0  0  0  0  0
   42.1841  -44.5595    2.0205 O   0  0  0  0  0  0  0  0  0  0  0  0
   42.5306  -43.3714    1.4439 C   0  0  0  0  0  0  0  0  0  0  0  0
   41.8408  -42.2264    1.7717 C   0  0  0  0  0  0  0  0  0  0  0  0
   42.1863  -41.0008    1.1905 C   0  0  0  0  0  0  0  0  0  0  0  0
   43.2248  -40.9444    0.2850 C   0  0  0  0  0  0  0  0  0  0  0  0
   43.8918  -42.1024   -0.0193 C   0  0  0  0  0  0  0  0  0  0  0  0
   43.5910  -43.3249    0.5223 C   0  0  0  0  0  0  0  0  0  0  0  0
   44.3228  -44.5358    0.1740 C   0  0  0  0  0  0  0  0  0  0  0  0
   43.6647  -45.6543   -0.2927 C   0  0  0  0  0  0  0  0  0  0  0  0
   44.3916  -46.7834   -0.6123 C   0  0  0  0  0  0  0  0  0  0  0  0
   45.7807  -46.8254   -0.4760 C   0  0  0  0  0  0  0  0  0  0  0  0
   46.4361  -45.7050   -0.0090 C   0  0  0  0  0  0  0  0  0  0  0  0
   45.7030  -44.5856    0.3065 C   0  0  0  0  0  0  0  0  0  0  0  0
   40.7357  -46.2338    6.7730 C   0  0  0  0  0  0  0  0  0  0  0  0
  1  2  1  0  0  0  0
  2  3  2  0  0  0  0
  2  4  1  0  0  0  0
  4  5  2  0  0  0  0
  5  6  1  0  0  0  0
  6  7  2  0  0  0  0
  7  8  1  0  0  0  0
  8  9  1  0  0  0  0
  8 26  2  0  0  0  0
  9 10  1  0  0  0  0
 10 11  2  0  0  0  0
 10 12  1  0  0  0  0
 12 13  1  0  0  0  0
 13 14  1  0  0  0  0
 14 15  2  0  0  0  0
 15 16  1  0  0  0  0
 16 17  2  0  0  0  0
 17 18  1  0  0  0  0
 18 19  2  0  0  0  0
 19 20  1  0  0  0  0
 19 14  1  0  0  0  0
 20 21  2  0  0  0  0
 21 22  1  0  0  0  0
 22 23  2  0  0  0  0
 23 24  1  0  0  0  0
 24 25  2  0  0  0  0
 25 20  1  0  0  0  0
 26  4  1  0  0  0  0
M  END
>  <CHROM.1>
22.01592690,-170.31939673,90.88314854,118.58823049,-116.78633724,54.68036045
42.25617716,-45.21219836,3.65192597,2.63480172,-1.03857910,2.88419953

>  <Name>
design_13

>  <RI>
0

>  <Rbt.Current_Directory>
/home/ziqiaoxu/icml18-jtnn/VAEdesign

>  <Rbt.Executable>
rbdock ($Id: //depot/dev/client3/rdock/2013.1/src/exe/rbdock.cxx#4 $)

>  <Rbt.Library>
libRbt.so (2013.1, Build901 2013/11/27)

>  <Rbt.Parameter_File>
/export/apps/rDock/src/rDock_2013.1_src//data/scripts/dock.prm

>  <Rbt.Receptor>
/home/ziqiaoxu/icml18-jtnn/VAEdesign/targets/RdRp-SARS-CoV-2/pocket_docking.prm

>  <SCORE>
-21.8401

>  <SCORE.INTER>
-27.3491

>  <SCORE.INTER.CONST>
1

>  <SCORE.INTER.POLAR>
-3.39015

>  <SCORE.INTER.REPUL>
0.0222568

>  <SCORE.INTER.ROT>
6

>  <SCORE.INTER.VDW>
-27.3339

>  <SCORE.INTER.norm>
-1.05189

>  <SCORE.INTRA>
5.50902

>  <SCORE.INTRA.DIHEDRAL>
13.3331

>  <SCORE.INTRA.DIHEDRAL.0>
4.33385

>  <SCORE.INTRA.POLAR>
0

>  <SCORE.INTRA.POLAR.0>
0

>  <SCORE.INTRA.REPUL>
0

>  <SCORE.INTRA.REPUL.0>
0

>  <SCORE.INTRA.VDW>
-1.15754

>  <SCORE.INTRA.VDW.0>
-0.866675

>  <SCORE.INTRA.norm>
0.211885

>  <SCORE.RESTR>
0

>  <SCORE.RESTR.CAVITY>
0

>  <SCORE.RESTR.norm>
0

>  <SCORE.SYSTEM>
0

>  <SCORE.SYSTEM.CONST>
0

>  <SCORE.SYSTEM.DIHEDRAL>
0

>  <SCORE.SYSTEM.norm>
0

>  <SCORE.heavy>
26

>  <SCORE.norm>
-0.840004

$$$$
design_5
 OpenBabel05252019093D

 26 28  0  0  0  0  0  0  0  0999 V2000
   45.3417  -45.5931    5.0698 N   0  0  0  0  0  0  0  0  0  0  0  0
   44.0677  -45.1145    5.4697 C   0  0  0  0  0  0  0  0  0  0  0  0
   43.5465  -44.1931    4.7783 O   0  0  0  0  0  0  0  0  0  0  0  0
   43.3841  -45.6834    6.6588 C   0  0  0  0  0  0  0  0  0  0  0  0
   43.8878  -44.9335    7.8479 C   0  0  0  0  0  0  0  0  0  0  0  0
   45.1756  -44.4648    7.8671 C   0  0  0  0  0  0  0  0  0  0  0  0
   45.6359  -43.8075    8.9984 C   0  0  0  0  0  0  0  0  0  0  0  0
   44.8002  -43.6395   10.0730 C   0  0  0  0  0  0  0  0  0  0  0  0
   43.4893  -44.1294   10.0219 C   0  0  0  0  0  0  0  0  0  0  0  0
   42.9896  -44.7847    8.9247 C   0  0  0  0  0  0  0  0  0  0  0  0
   41.7134  -45.3034    8.7494 N   0  0  0  0  0  0  0  0  0  0  0  0
   40.6785  -45.3025    9.7672 C   0  0  0  0  0  0  0  0  0  0  0  0
   40.9031  -44.8542   10.8933 O   0  0  0  0  0  0  0  0  0  0  0  0
   39.4535  -45.8172    9.3544 N   0  0  0  0  0  0  0  0  0  0  0  0
   38.2887  -46.3052    8.9657 C   0  0  0  0  0  0  0  0  0  0  0  0
   38.3698  -47.2968    7.8425 C   0  0  0  0  0  0  0  0  0  0  0  0
   38.9068  -48.5450    8.1420 C   0  0  0  0  0  0  0  0  0  0  0  0
   38.8434  -49.5215    7.1724 C   0  0  0  0  0  0  0  0  0  0  0  0
   38.2533  -49.2281    5.9548 C   0  0  0  0  0  0  0  0  0  0  0  0
   37.7275  -47.9813    5.6738 C   0  0  0  0  0  0  0  0  0  0  0  0
   37.7919  -46.9892    6.6501 C   0  0  0  0  0  0  0  0  0  0  0  0
   37.3517  -45.6666    6.3548 N   0  0  0  0  0  0  0  0  0  0  0  0
   37.8579  -44.4659    6.6143 C   0  0  0  0  0  0  0  0  0  0  0  0
   37.0159  -43.4868    6.1289 C   0  0  0  0  0  0  0  0  0  0  0  0
   35.9588  -44.1614    5.5581 C   0  0  0  0  0  0  0  0  0  0  0  0
   36.1795  -45.4484    5.7048 N   0  0  0  0  0  0  0  0  0  0  0  0
  1  2  1  0  0  0  0
  2  3  2  0  0  0  0
  2  4  1  0  0  0  0
  4  5  1  0  0  0  0
  5  6  2  0  0  0  0
  6  7  1  0  0  0  0
  7  8  2  0  0  0  0
  8  9  1  0  0  0  0
  9 10  2  0  0  0  0
 10 11  1  0  0  0  0
 10  5  1  0  0  0  0
 11 12  1  0  0  0  0
 12 13  2  0  0  0  0
 12 14  1  0  0  0  0
 14 15  1  0  0  0  0
 15 16  1  0  0  0  0
 16 17  2  0  0  0  0
 17 18  1  0  0  0  0
 18 19  2  0  0  0  0
 19 20  1  0  0  0  0
 20 21  2  0  0  0  0
 21 22  1  0  0  0  0
 21 16  1  0  0  0  0
 22 23  1  0  0  0  0
 23 24  2  0  0  0  0
 24 25  1  0  0  0  0
 25 26  2  0  0  0  0
 26 22  1  0  0  0  0
M  END
>  <CHROM.1>
86.03632870,-32.73170666,176.84817478,-156.77056028,71.23568014,39.11475047
40.71120693,-45.62389460,7.50062477,-0.22148645,-0.23633678,-1.74065019

>  <Name>
design_5

>  <RI>
0

>  <Rbt.Current_Directory>
/home/ziqiaoxu/icml18-jtnn/VAEdesign

>  <Rbt.Executable>
rbdock ($Id: //depot/dev/client3/rdock/2013.1/src/exe/rbdock.cxx#4 $)

>  <Rbt.Library>
libRbt.so (2013.1, Build901 2013/11/27)

>  <Rbt.Parameter_File>
/export/apps/rDock/src/rDock_2013.1_src//data/scripts/dock.prm

>  <Rbt.Receptor>
/home/ziqiaoxu/icml18-jtnn/VAEdesign/targets/RdRp-SARS-CoV-2/pocket_docking.prm

>  <SCORE>
-23.8467

>  <SCORE.INTER>
-21.6645

>  <SCORE.INTER.CONST>
1

>  <SCORE.INTER.POLAR>
-1.91423

>  <SCORE.INTER.REPUL>
0.155473

>  <SCORE.INTER.ROT>
6

>  <SCORE.INTER.VDW>
-27.3334

>  <SCORE.INTER.norm>
-0.833248

>  <SCORE.INTRA>
-2.18225

>  <SCORE.INTRA.DIHEDRAL>
-6.5152

>  <SCORE.INTRA.DIHEDRAL.0>
15.8499

>  <SCORE.INTRA.POLAR>
0

>  <SCORE.INTRA.POLAR.0>
0

>  <SCORE.INTRA.REPUL>
0

>  <SCORE.INTRA.REPUL.0>
0

>  <SCORE.INTRA.VDW>
1.07535

>  <SCORE.INTRA.VDW.0>
-0.923815

>  <SCORE.INTRA.norm>
-0.0839327

>  <SCORE.RESTR>
0

>  <SCORE.RESTR.CAVITY>
0

>  <SCORE.RESTR.norm>
0

>  <SCORE.SYSTEM>
0

>  <SCORE.SYSTEM.CONST>
0

>  <SCORE.SYSTEM.DIHEDRAL>
0

>  <SCORE.SYSTEM.norm>
0

>  <SCORE.heavy>
26

>  <SCORE.norm>
-0.917181

$$$$
design_3
 OpenBabel05252019093D

 24 26  0  0  0  0  0  0  0  0999 V2000
   44.3303  -47.0630   -0.6317 N   0  0  0  0  0  0  0  0  0  0  0  0
   44.6974  -45.6479    0.2812 S   0  0  0  0  0  0  0  0  0  0  0  0
   45.4467  -44.6423   -0.5447 O   0  0  0  0  0  0  0  0  0  0  0  0
   43.3954  -45.0402    0.7678 O   0  0  0  0  0  0  0  0  0  0  0  0
   45.6818  -46.0989    1.6608 C   0  0  0  0  0  0  0  0  0  0  0  0
   46.5984  -47.1039    1.5509 C   0  0  0  0  0  0  0  0  0  0  0  0
   47.3725  -47.4591    2.6320 C   0  0  0  0  0  0  0  0  0  0  0  0
   47.2369  -46.8116    3.8353 C   0  0  0  0  0  0  0  0  0  0  0  0
   46.3159  -45.7976    3.9565 C   0  0  0  0  0  0  0  0  0  0  0  0
   46.1000  -45.0544    5.2055 C   0  0  0  0  0  0  0  0  0  0  0  0
   44.8224  -45.4072    5.7745 N   0  0  0  0  0  0  0  0  0  0  0  0
   44.4911  -44.9748    7.0801 C   0  0  0  0  0  0  0  0  0  0  0  0
   45.3184  -44.2894    7.7198 O   0  0  0  0  0  0  0  0  0  0  0  0
   43.1883  -45.3300    7.6735 C   0  0  0  0  0  0  0  0  0  0  0  0
   42.7575  -44.7150    8.8286 C   0  0  0  0  0  0  0  0  0  0  0  0
   41.5400  -45.0384    9.3946 C   0  0  0  0  0  0  0  0  0  0  0  0
   40.7269  -45.9969    8.8010 C   0  0  0  0  0  0  0  0  0  0  0  0
   39.5039  -46.3541    9.3276 C   0  0  0  0  0  0  0  0  0  0  0  0
   38.6932  -47.3068    8.7395 C   0  0  0  0  0  0  0  0  0  0  0  0
   39.1519  -47.9041    7.5851 C   0  0  0  0  0  0  0  0  0  0  0  0
   40.3809  -47.5445    7.0572 C   0  0  0  0  0  0  0  0  0  0  0  0
   41.1917  -46.5912    7.6455 C   0  0  0  0  0  0  0  0  0  0  0  0
   42.3917  -46.2524    7.1140 N   0  0  0  0  0  0  0  0  0  0  0  0
   45.5594  -45.4626    2.8706 C   0  0  0  0  0  0  0  0  0  0  0  0
  1  2  1  0  0  0  0
  2  3  2  0  0  0  0
  2  4  2  0  0  0  0
  2  5  1  0  0  0  0
  5  6  2  0  0  0  0
  6  7  1  0  0  0  0
  7  8  2  0  0  0  0
  8  9  1  0  0  0  0
  9 10  1  0  0  0  0
  9 24  2  0  0  0  0
 10 11  1  0  0  0  0
 11 12  1  0  0  0  0
 12 13  2  0  0  0  0
 12 14  1  0  0  0  0
 14 15  2  0  0  0  0
 15 16  1  0  0  0  0
 16 17  2  0  0  0  0
 17 18  1  0  0  0  0
 18 19  2  0  0  0  0
 19 20  1  0  0  0  0
 20 21  2  0  0  0  0
 21 22  1  0  0  0  0
 22 23  2  0  0  0  0
 22 17  1  0  0  0  0
 23 14  1  0  0  0  0
 24  5  1  0  0  0  0
M  END
>  <CHROM.1>
106.43972002,35.20656405,-109.35842054,170.20155771,-167.89410704,43.72732080
-45.95162822,4.77800907,1.00112464,-0.26602379,-1.70390822

>  <Name>
design_3

>  <RI>
0

>  <Rbt.Current_Directory>
/home/ziqiaoxu/icml18-jtnn/VAEdesign

>  <Rbt.Executable>
rbdock ($Id: //depot/dev/client3/rdock/2013.1/src/exe/rbdock.cxx#4 $)

>  <Rbt.Library>
libRbt.so (2013.1, Build901 2013/11/27)

>  <Rbt.Parameter_File>
/export/apps/rDock/src/rDock_2013.1_src//data/scripts/dock.prm

>  <Rbt.Receptor>
/home/ziqiaoxu/icml18-jtnn/VAEdesign/targets/RdRp-SARS-CoV-2/pocket_docking.prm

>  <SCORE>
-21.8171

>  <SCORE.INTER>
-23.1656

>  <SCORE.INTER.CONST>
1

>  <SCORE.INTER.POLAR>
-1.83455

>  <SCORE.INTER.REPUL>
0

>  <SCORE.INTER.ROT>
5

>  <SCORE.INTER.VDW>
-27.3282

>  <SCORE.INTER.norm>
-0.965234

>  <SCORE.INTRA>
1.34855

>  <SCORE.INTRA.DIHEDRAL>
1.40123

>  <SCORE.INTRA.DIHEDRAL.0>
4.45977

>  <SCORE.INTRA.POLAR>
0

>  <SCORE.INTRA.POLAR.0>
0

>  <SCORE.INTRA.REPUL>
0

>  <SCORE.INTRA.REPUL.0>
0

>  <SCORE.INTRA.VDW>
0.647933

>  <SCORE.INTRA.VDW.0>
-2.08825

>  <SCORE.INTRA.norm>
0.0561895

>  <SCORE.RESTR>
0

>  <SCORE.RESTR.CAVITY>
0

>  <SCORE.RESTR.norm>
0

>  <SCORE.SYSTEM>
0

>  <SCORE.SYSTEM.CONST>
0

>  <SCORE.SYSTEM.DIHEDRAL>
0

>  <SCORE.SYSTEM.norm>
0

>  <SCORE.heavy>
24

>  <SCORE.norm>
-0.909045

$$$$
design_2
 OpenBabel05252019093D

 27 29  0  0  0  0  0  0  0  0999 V2000
   40.2779  -47.4159    6.4008 C   0  0  0  0  0  0  0  0  0  0  0  0
   40.4418  -46.8580    7.6966 N   0  0  0  0  0  0  0  0  0  0  0  0
   39.3307  -47.1842    8.6577 C   0  0  0  0  0  0  0  0  0  0  0  0
   38.4987  -45.9427    8.7691 C   0  0  0  0  0  0  0  0  0  0  0  0
   37.9203  -45.5262    7.4742 C   0  0  0  0  0  0  0  0  0  0  0  0
   36.8153  -46.1819    6.9829 C   0  0  0  0  0  0  0  0  0  0  0  0
   36.2809  -45.7807    5.7641 C   0  0  0  0  0  0  0  0  0  0  0  0
   36.7965  -44.7888    5.0564 N   0  0  0  0  0  0  0  0  0  0  0  0
   37.8671  -44.1343    5.5061 C   0  0  0  0  0  0  0  0  0  0  0  0
   38.4445  -44.4964    6.7256 C   0  0  0  0  0  0  0  0  0  0  0  0
   41.4641  -46.0722    8.1988 C   0  0  0  0  0  0  0  0  0  0  0  0
   41.3441  -45.6952    9.4671 O   0  0  0  0  0  0  0  0  0  0  0  0
   42.6528  -45.5859    7.5754 C   0  0  0  0  0  0  0  0  0  0  0  0
   43.5737  -44.8533    8.3491 C   0  0  0  0  0  0  0  0  0  0  0  0
   44.7407  -44.3384    7.8633 C   0  0  0  0  0  0  0  0  0  0  0  0
   45.0760  -44.5224    6.5479 C   0  0  0  0  0  0  0  0  0  0  0  0
   44.2123  -45.2394    5.7177 C   0  0  0  0  0  0  0  0  0  0  0  0
   44.5582  -45.4018    4.3692 N   0  0  0  0  0  0  0  0  0  0  0  0
   43.7527  -45.7361    3.2777 C   0  0  0  0  0  0  0  0  0  0  0  0
   42.5099  -45.9532    3.4361 O   0  0  0  0  0  0  0  0  0  0  0  0
   44.3229  -45.8426    1.9389 C   0  0  0  0  0  0  0  0  0  0  0  0
   45.6623  -45.8153    1.6779 C   0  0  0  0  0  0  0  0  0  0  0  0
   46.1539  -45.9282    0.3754 C   0  0  0  0  0  0  0  0  0  0  0  0
   45.2984  -46.0702   -0.6842 C   0  0  0  0  0  0  0  0  0  0  0  0
   43.9342  -46.1005   -0.4451 C   0  0  0  0  0  0  0  0  0  0  0  0
   43.4737  -45.9889    0.8344 C   0  0  0  0  0  0  0  0  0  0  0  0
   43.0407  -45.7391    6.2632 C   0  0  0  0  0  0  0  0  0  0  0  0
  1  2  1  0  0  0  0
  2  3  1  0  0  0  0
  2 11  1  0  0  0  0
  3  4  1  0  0  0  0
  4  5  1  0  0  0  0
  5  6  2  0  0  0  0
  6  7  1  0  0  0  0
  7  8  2  0  0  0  0
  8  9  1  0  0  0  0
  9 10  2  0  0  0  0
 10  5  1  0  0  0  0
 11 12  2  0  0  0  0
 11 13  1  0  0  0  0
 13 14  2  0  0  0  0
 14 15  1  0  0  0  0
 15 16  2  0  0  0  0
 16 17  1  0  0  0  0
 17 18  1  0  0  0  0
 17 27  2  0  0  0  0
 18 19  1  0  0  0  0
 19 20  2  0  0  0  0
 19 21  1  0  0  0  0
 21 22  2  0  0  0  0
 22 23  1  0  0  0  0
 23 24  2  0  0  0  0
 24 25  1  0  0  0  0
 25 26  2  0  0  0  0
 26 21  1  0  0  0  0
 27 13  1  0  0  0  0
M  END
>  <CHROM.1>
-104.19251231,60.32725509,78.10309124,-176.60024748,-160.79312071,9.40635651
41.76262029,-45.68999793,5.36312779,2.37479296,0.03828168,1.52759134

>  <Name>
design_2

>  <RI>
0

>  <Rbt.Current_Directory>
/home/ziqiaoxu/icml18-jtnn/VAEdesign

>  <Rbt.Executable>
rbdock ($Id: //depot/dev/client3/rdock/2013.1/src/exe/rbdock.cxx#4 $)

>  <Rbt.Library>
libRbt.so (2013.1, Build901 2013/11/27)

>  <Rbt.Parameter_File>
/export/apps/rDock/src/rDock_2013.1_src//data/scripts/dock.prm

>  <Rbt.Receptor>
/home/ziqiaoxu/icml18-jtnn/VAEdesign/targets/RdRp-SARS-CoV-2/pocket_docking.prm

>  <SCORE>
-16.5984

>  <SCORE.INTER>
-15.8143

>  <SCORE.INTER.CONST>
1

>  <SCORE.INTER.POLAR>
0

>  <SCORE.INTER.REPUL>
0.0225378

>  <SCORE.INTER.ROT>
6

>  <SCORE.INTER.VDW>
-27.327

>  <SCORE.INTER.norm>
-0.585716

>  <SCORE.INTRA>
-0.784039

>  <SCORE.INTRA.DIHEDRAL>
-0.886649

>  <SCORE.INTRA.DIHEDRAL.0>
4.50302

>  <SCORE.INTRA.POLAR>
0

>  <SCORE.INTRA.POLAR.0>
0

>  <SCORE.INTRA.REPUL>
0

>  <SCORE.INTRA.REPUL.0>
0

>  <SCORE.INTRA.VDW>
-0.340715

>  <SCORE.INTRA.VDW.0>
-0.0720135

>  <SCORE.INTRA.norm>
-0.0290385

>  <SCORE.RESTR>
0

>  <SCORE.RESTR.CAVITY>
0

>  <SCORE.RESTR.norm>
0

>  <SCORE.SYSTEM>
0

>  <SCORE.SYSTEM.CONST>
0

>  <SCORE.SYSTEM.DIHEDRAL>
0

>  <SCORE.SYSTEM.norm>
0

>  <SCORE.heavy>
27

>  <SCORE.norm>
-0.614755

$$$$
design_6
 OpenBabel05252019093D

 25 26  0  0  0  0  0  0  0  0999 V2000
   44.6436  -44.2126    6.1162 C   0  0  0  0  0  0  0  0  0  0  0  0
   45.0011  -44.9604    7.3952 C   0  0  0  0  0  0  0  0  0  0  0  0
   44.4178  -44.4328    8.5668 N   0  0  0  0  0  0  0  0  0  0  0  0
   45.3589  -43.5279    9.3333 C   0  0  0  0  0  0  0  0  0  0  0  0
   45.9616  -44.3087   10.4775 C   0  0  0  0  0  0  0  0  0  0  0  0
   43.1754  -44.5930    9.1335 C   0  0  0  0  0  0  0  0  0  0  0  0
   42.9938  -43.9146   10.2522 O   0  0  0  0  0  0  0  0  0  0  0  0
   42.0353  -45.3518    8.7491 C   0  0  0  0  0  0  0  0  0  0  0  0
   40.9606  -45.5638    9.5606 C   0  0  0  0  0  0  0  0  0  0  0  0
   39.8920  -46.3359    9.0925 C   0  0  0  0  0  0  0  0  0  0  0  0
   39.8637  -46.9028    7.8381 C   0  0  0  0  0  0  0  0  0  0  0  0
   38.7435  -47.6780    7.4264 N   0  0  0  0  0  0  0  0  0  0  0  0
   38.2232  -47.4525    6.0920 C   0  0  0  0  0  0  0  0  0  0  0  0
   37.5850  -46.0979    5.9996 C   0  0  0  0  0  0  0  0  0  0  0  0
   38.2501  -44.9534    6.3250 C   0  0  0  0  0  0  0  0  0  0  0  0
   37.5719  -43.7319    6.2067 C   0  0  0  0  0  0  0  0  0  0  0  0
   36.2847  -43.6076    5.7866 C   0  0  0  0  0  0  0  0  0  0  0  0
   35.5791  -42.3944    5.6767 N   0  0  0  0  0  0  0  0  0  0  0  0
   36.0305  -41.1411    6.0583 C   0  0  0  0  0  0  0  0  0  0  0  0
   35.1329  -39.9493    5.8572 C   0  0  0  0  0  0  0  0  0  0  0  0
   37.1307  -40.9102    6.5609 O   0  0  0  0  0  0  0  0  0  0  0  0
   35.6300  -44.8210    5.4581 C   0  0  0  0  0  0  0  0  0  0  0  0
   36.2835  -46.0125    5.5706 C   0  0  0  0  0  0  0  0  0  0  0  0
   40.9506  -46.6897    7.0137 C   0  0  0  0  0  0  0  0  0  0  0  0
   42.0068  -45.9381    7.4504 C   0  0  0  0  0  0  0  0  0  0  0  0
  1  2  1  0  0  0  0
  2  3  1  0  0  0  0
  3  4  1  0  0  0  0
  3  6  1  0  0  0  0
  4  5  1  0  0  0  0
  6  7  2  0  0  0  0
  6  8  1  0  0  0  0
  8  9  2  0  0  0  0
  9 10  1  0  0  0  0
 10 11  2  0  0  0  0
 11 12  1  0  0  0  0
 11 24  1  0  0  0  0
 12 13  1  0  0  0  0
 13 14  1  0  0  0  0
 14 15  2  0  0  0  0
 15 16  1  0  0  0  0
 16 17  2  0  0  0  0
 17 18  1  0  0  0  0
 17 22  1  0  0  0  0
 18 19  1  0  0  0  0
 19 20  1  0  0  0  0
 19 21  2  0  0  0  0
 22 23  2  0  0  0  0
 23 14  1  0  0  0  0
 24 25  2  0  0  0  0
 25  8  1  0  0  0  0
M  END
>  <CHROM.1>
-97.97899651,-99.61857935,168.49746414,135.74236089,-68.70204143,55.18597217
-4.75798660,40.03965645,-44.56141579,7.37912004,-0.16896543,-0.35658781,0.01397860

>  <Name>
design_6

>  <RI>
0

>  <Rbt.Current_Directory>
/home/ziqiaoxu/icml18-jtnn/VAEdesign

>  <Rbt.Executable>
rbdock ($Id: //depot/dev/client3/rdock/2013.1/src/exe/rbdock.cxx#4 $)

>  <Rbt.Library>
libRbt.so (2013.1, Build901 2013/11/27)

>  <Rbt.Parameter_File>
/export/apps/rDock/src/rDock_2013.1_src//data/scripts/dock.prm

>  <Rbt.Receptor>
/home/ziqiaoxu/icml18-jtnn/VAEdesign/targets/RdRp-SARS-CoV-2/pocket_docking.prm

>  <SCORE>
-15.2089

>  <SCORE.INTER>
-16.8836

>  <SCORE.INTER.CONST>
1

>  <SCORE.INTER.POLAR>
-0.576027

>  <SCORE.INTER.REPUL>
0

>  <SCORE.INTER.ROT>
7

>  <SCORE.INTER.VDW>
-27.3251

>  <SCORE.INTER.norm>
-0.675343

>  <SCORE.INTRA>
1.67468

>  <SCORE.INTRA.DIHEDRAL>
6.05619

>  <SCORE.INTRA.DIHEDRAL.0>
6.29917

>  <SCORE.INTRA.POLAR>
0

>  <SCORE.INTRA.POLAR.0>
0

>  <SCORE.INTRA.REPUL>
0

>  <SCORE.INTRA.REPUL.0>
0

>  <SCORE.INTRA.VDW>
-1.35341

>  <SCORE.INTRA.VDW.0>
1.00253

>  <SCORE.INTRA.norm>
0.0669873

>  <SCORE.RESTR>
0

>  <SCORE.RESTR.CAVITY>
0

>  <SCORE.RESTR.norm>
0

>  <SCORE.SYSTEM>
0

>  <SCORE.SYSTEM.CONST>
0

>  <SCORE.SYSTEM.DIHEDRAL>
0

>  <SCORE.SYSTEM.norm>
0

>  <SCORE.heavy>
25

>  <SCORE.norm>
-0.608355

$$$$
design_9
 OpenBabel05252019093D

 25 28  0  0  0  0  0  0  0  0999 V2000
   44.9261  -43.7402    5.2943 O   0  0  0  0  0  0  0  0  0  0  0  0
   45.3197  -44.9109    5.6212 C   0  0  0  0  0  0  0  0  0  0  0  0
   44.7803  -45.4859    6.7968 N   0  0  0  0  0  0  0  0  0  0  0  0
   43.7337  -44.7437    7.4941 C   0  0  0  0  0  0  0  0  0  0  0  0
   42.5066  -45.6180    7.3778 C   0  0  0  0  0  0  0  0  0  0  0  0
   42.0279  -46.2753    6.3166 N   0  0  0  0  0  0  0  0  0  0  0  0
   40.9305  -46.9741    6.6486 C   0  0  0  0  0  0  0  0  0  0  0  0
   40.0702  -47.8044    5.9661 C   0  0  0  0  0  0  0  0  0  0  0  0
   38.9797  -48.4153    6.5987 C   0  0  0  0  0  0  0  0  0  0  0  0
   38.7501  -48.1886    7.9401 C   0  0  0  0  0  0  0  0  0  0  0  0
   39.6056  -47.3625    8.6230 C   0  0  0  0  0  0  0  0  0  0  0  0
   40.6934  -46.7536    7.9891 C   0  0  0  0  0  0  0  0  0  0  0  0
   41.6654  -45.9271    8.4032 N   0  0  0  0  0  0  0  0  0  0  0  0
   46.2503  -45.6163    4.8503 N   0  0  0  0  0  0  0  0  0  0  0  0
   46.9517  -45.3289    3.6774 C   0  0  0  0  0  0  0  0  0  0  0  0
   47.1203  -46.2236    2.5381 C   0  0  0  0  0  0  0  0  0  0  0  0
   46.0185  -45.9306    1.5208 C   0  0  0  0  0  0  0  0  0  0  0  0
   46.3256  -45.2237    0.3772 C   0  0  0  0  0  0  0  0  0  0  0  0
   45.3577  -44.9314   -0.5922 C   0  0  0  0  0  0  0  0  0  0  0  0
   44.0926  -45.3954   -0.3267 C   0  0  0  0  0  0  0  0  0  0  0  0
   43.7702  -46.1018    0.8098 C   0  0  0  0  0  0  0  0  0  0  0  0
   44.7573  -46.3849    1.7718 C   0  0  0  0  0  0  0  0  0  0  0  0
   47.1180  -47.7426    2.7415 C   0  0  0  0  0  0  0  0  0  0  0  0
   47.8655  -47.7869    1.3561 C   0  0  0  0  0  0  0  0  0  0  0  0
   48.4256  -46.4142    1.8442 C   0  0  0  0  0  0  0  0  0  0  0  0
  1  2  2  0  0  0  0
  2  3  1  0  0  0  0
  2 14  1  0  0  0  0
  3  4  1  0  0  0  0
  4  5  1  0  0  0  0
  5  6  2  0  0  0  0
  6  7  1  0  0  0  0
  7  8  2  0  0  0  0
  8  9  1  0  0  0  0
  9 10  2  0  0  0  0
 10 11  1  0  0  0  0
 11 12  2  0  0  0  0
 12 13  1  0  0  0  0
 12  7  1  0  0  0  0
 13  5  1  0  0  0  0
 14 15  1  0  0  0  0
 15 16  1  0  0  0  0
 16 17  1  0  0  0  0
 16 23  1  0  0  0  0
 17 18  2  0  0  0  0
 18 19  1  0  0  0  0
 19 20  2  0  0  0  0
 20 21  1  0  0  0  0
 21 22  2  0  0  0  0
 22 17  1  0  0  0  0
 23 24  1  0  0  0  0
 24 25  1  0  0  0  0
 25 16  1  0  0  0  0
M  END
>  <CHROM.1>
115.12388080,-44.55220083,-134.55540912,93.65229002,104.20842226,43.97909287
-46.18984106,4.49283493,-0.75328957,0.32946281,1.38970352

>  <Name>
design_9

>  <RI>
0

>  <Rbt.Current_Directory>
/home/ziqiaoxu/icml18-jtnn/VAEdesign

>  <Rbt.Executable>
rbdock ($Id: //depot/dev/client3/rdock/2013.1/src/exe/rbdock.cxx#4 $)

>  <Rbt.Library>
libRbt.so (2013.1, Build901 2013/11/27)

>  <Rbt.Parameter_File>
/export/apps/rDock/src/rDock_2013.1_src//data/scripts/dock.prm

>  <Rbt.Receptor>
/home/ziqiaoxu/icml18-jtnn/VAEdesign/targets/RdRp-SARS-CoV-2/pocket_docking.prm

>  <SCORE>
-20.2992

>  <SCORE.INTER>
-22.0784

>  <SCORE.INTER.CONST>
1

>  <SCORE.INTER.POLAR>
-1.52286

>  <SCORE.INTER.REPUL>
0

>  <SCORE.INTER.ROT>
5

>  <SCORE.INTER.VDW>
-27.3007

>  <SCORE.INTER.norm>
-0.883138

>  <SCORE.INTRA>
1.77928

>  <SCORE.INTRA.DIHEDRAL>
3.14147

>  <SCORE.INTRA.DIHEDRAL.0>
4.66355

>  <SCORE.INTRA.POLAR>
0

>  <SCORE.INTRA.POLAR.0>
0

>  <SCORE.INTRA.REPUL>
0

>  <SCORE.INTRA.REPUL.0>
0

>  <SCORE.INTRA.VDW>
0.208547

>  <SCORE.INTRA.VDW.0>
0.412775

>  <SCORE.INTRA.norm>
0.0711712

>  <SCORE.RESTR>
0

>  <SCORE.RESTR.CAVITY>
0

>  <SCORE.RESTR.norm>
0

>  <SCORE.SYSTEM>
0

>  <SCORE.SYSTEM.CONST>
0

>  <SCORE.SYSTEM.DIHEDRAL>
0

>  <SCORE.SYSTEM.norm>
0

>  <SCORE.heavy>
25

>  <SCORE.norm>
-0.811967

$$$$
design_10
 OpenBabel05252019093D

 24 25  0  0  0  0  0  0  0  0999 V2000
   39.9360  -46.3187    9.2841 C   0  0  0  0  0  0  0  0  0  0  0  0
   40.7681  -45.1117    9.3879 N   0  0  0  0  0  0  0  0  0  0  0  0
   40.3672  -44.0061   10.2047 C   0  0  0  0  0  0  0  0  0  0  0  0
   39.5350  -43.0218    9.4571 C   0  0  0  0  0  0  0  0  0  0  0  0
   39.6037  -41.6847   10.2410 C   0  0  0  0  0  0  0  0  0  0  0  0
   39.2652  -41.8175   11.4592 O   0  0  0  0  0  0  0  0  0  0  0  0
   39.9924  -40.6245    9.5556 N   0  0  0  0  0  0  0  0  0  0  0  0
   40.3942  -39.5256    8.8489 C   0  0  0  0  0  0  0  0  0  0  0  0
   40.1517  -39.4349    7.3950 C   0  0  0  0  0  0  0  0  0  0  0  0
   39.8275  -40.2661    6.5807 O   0  0  0  0  0  0  0  0  0  0  0  0
   40.3484  -38.0653    6.8866 N   0  0  0  0  0  0  0  0  0  0  0  0
   40.1948  -37.8294    5.5175 C   0  0  0  0  0  0  0  0  0  0  0  0
   40.3554  -38.8202    4.5441 C   0  0  0  0  0  0  0  0  0  0  0  0
   40.2551  -38.5423    3.2264 C   0  0  0  0  0  0  0  0  0  0  0  0
   39.9775  -37.2250    2.7803 C   0  0  0  0  0  0  0  0  0  0  0  0
   39.8793  -36.9318    1.4597 F   0  0  0  0  0  0  0  0  0  0  0  0
   39.8178  -36.2469    3.7457 C   0  0  0  0  0  0  0  0  0  0  0  0
   39.9273  -36.5643    5.0814 C   0  0  0  0  0  0  0  0  0  0  0  0
   41.9843  -45.0836    8.6577 C   0  0  0  0  0  0  0  0  0  0  0  0
   42.1880  -45.8542    7.5193 C   0  0  0  0  0  0  0  0  0  0  0  0
   43.4308  -45.8098    6.9177 C   0  0  0  0  0  0  0  0  0  0  0  0
   44.4821  -45.0490    7.3785 C   0  0  0  0  0  0  0  0  0  0  0  0
   44.2452  -44.3012    8.5034 C   0  0  0  0  0  0  0  0  0  0  0  0
   43.0283  -44.2976    9.1523 C   0  0  0  0  0  0  0  0  0  0  0  0
  1  2  1  0  0  0  0
  2  3  1  0  0  0  0
  2 19  1  0  0  0  0
  3  4  1  0  0  0  0
  4  5  1  0  0  0  0
  5  6  2  0  0  0  0
  5  7  1  0  0  0  0
  7  8  1  0  0  0  0
  8  9  1  0  0  0  0
  9 10  2  0  0  0  0
  9 11  1  0  0  0  0
 11 12  1  0  0  0  0
 12 13  2  0  0  0  0
 13 14  1  0  0  0  0
 14 15  2  0  0  0  0
 15 16  1  0  0  0  0
 15 17  1  0  0  0  0
 17 18  2  0  0  0  0
 18 12  1  0  0  0  0
 19 20  2  0  0  0  0
 20 21  1  0  0  0  0
 21 22  2  0  0  0  0
 22 23  1  0  0  0  0
 23 24  2  0  0  0  0
 24 19  1  0  0  0  0
M  END
>  <CHROM.1>
-89.61840347,-159.83473156,-54.57955944,-148.39992636,-13.95608342,-24.52063090
24.53643569,40.77759077,-41.30263893,7.23037411,-1.24746251,0.96174427,-0.88160604

>  <Name>
design_10

>  <RI>
0

>  <Rbt.Current_Directory>
/home/ziqiaoxu/icml18-jtnn/VAEdesign

>  <Rbt.Executable>
rbdock ($Id: //depot/dev/client3/rdock/2013.1/src/exe/rbdock.cxx#4 $)

>  <Rbt.Library>
libRbt.so (2013.1, Build901 2013/11/27)

>  <Rbt.Parameter_File>
/export/apps/rDock/src/rDock_2013.1_src//data/scripts/dock.prm

>  <Rbt.Receptor>
/home/ziqiaoxu/icml18-jtnn/VAEdesign/targets/RdRp-SARS-CoV-2/pocket_docking.prm

>  <SCORE>
-19.4856

>  <SCORE.INTER>
-16.418

>  <SCORE.INTER.CONST>
1

>  <SCORE.INTER.POLAR>
-0.4465

>  <SCORE.INTER.REPUL>
0

>  <SCORE.INTER.ROT>
7

>  <SCORE.INTER.VDW>
-27.2999

>  <SCORE.INTER.norm>
-0.684083

>  <SCORE.INTRA>
-3.06956

>  <SCORE.INTRA.DIHEDRAL>
-8.96685

>  <SCORE.INTRA.DIHEDRAL.0>
22.4148

>  <SCORE.INTRA.POLAR>
0

>  <SCORE.INTRA.POLAR.0>
0

>  <SCORE.INTRA.REPUL>
0

>  <SCORE.INTRA.REPUL.0>
0

>  <SCORE.INTRA.VDW>
1.41386

>  <SCORE.INTRA.VDW.0>
1.8273

>  <SCORE.INTRA.norm>
-0.127898

>  <SCORE.RESTR>
0.00191633

>  <SCORE.RESTR.CAVITY>
0.00191633

>  <SCORE.RESTR.norm>
7.98473e-05

>  <SCORE.SYSTEM>
0

>  <SCORE.SYSTEM.CONST>
0

>  <SCORE.SYSTEM.DIHEDRAL>
0

>  <SCORE.SYSTEM.norm>
0

>  <SCORE.heavy>
24

>  <SCORE.norm>
-0.811902

$$$$
design_0
 OpenBabel05252019093D

 24 25  0  0  0  0  0  0  0  0999 V2000
   44.0173  -45.5737    0.0254 C   0  0  0  0  0  0  0  0  0  0  0  0
   45.2014  -46.4490    0.0698 C   0  0  0  0  0  0  0  0  0  0  0  0
   45.5851  -47.0367   -0.9616 O   0  0  0  0  0  0  0  0  0  0  0  0
   45.9421  -46.6456    1.3046 C   0  0  0  0  0  0  0  0  0  0  0  0
   47.0603  -47.4440    1.2805 C   0  0  0  0  0  0  0  0  0  0  0  0
   47.7809  -47.6498    2.4287 C   0  0  0  0  0  0  0  0  0  0  0  0
   47.3957  -47.0571    3.6344 C   0  0  0  0  0  0  0  0  0  0  0  0
   46.2804  -46.2498    3.7014 C   0  0  0  0  0  0  0  0  0  0  0  0
   45.8070  -45.6221    4.8781 N   0  0  0  0  0  0  0  0  0  0  0  0
   44.8072  -44.6734    5.0396 C   0  0  0  0  0  0  0  0  0  0  0  0
   44.1637  -44.2341    4.0576 O   0  0  0  0  0  0  0  0  0  0  0  0
   44.4684  -44.1422    6.4235 C   0  0  0  0  0  0  0  0  0  0  0  0
   44.3518  -45.3170    7.3365 C   0  0  0  0  0  0  0  0  0  0  0  0
   43.0559  -45.9613    7.2500 N   0  0  0  0  0  0  0  0  0  0  0  0
   42.1354  -45.7309    8.3036 C   0  0  0  0  0  0  0  0  0  0  0  0
   42.4468  -44.9900    9.2740 O   0  0  0  0  0  0  0  0  0  0  0  0
   40.7938  -46.3427    8.3036 C   0  0  0  0  0  0  0  0  0  0  0  0
   39.8638  -45.9676    9.2562 C   0  0  0  0  0  0  0  0  0  0  0  0
   38.6117  -46.5325    9.2635 C   0  0  0  0  0  0  0  0  0  0  0  0
   38.2279  -47.4818    8.3406 C   0  0  0  0  0  0  0  0  0  0  0  0
   39.1673  -47.8419    7.4009 C   0  0  0  0  0  0  0  0  0  0  0  0
   38.7396  -49.0417    6.2034 Cl  0  0  0  0  0  0  0  0  0  0  0  0
   40.4474  -47.2857    7.3681 C   0  0  0  0  0  0  0  0  0  0  0  0
   45.5848  -46.0775    2.4927 C   0  0  0  0  0  0  0  0  0  0  0  0
  1  2  1  0  0  0  0
  2  3  2  0  0  0  0
  2  4  1  0  0  0  0
  4  5  2  0  0  0  0
  5  6  1  0  0  0  0
  6  7  2  0  0  0  0
  7  8  1  0  0  0  0
  8  9  1  0  0  0  0
  8 24  2  0  0  0  0
  9 10  1  0  0  0  0
 10 11  2  0  0  0  0
 10 12  1  0  0  0  0
 12 13  1  0  0  0  0
 13 14  1  0  0  0  0
 14 15  1  0  0  0  0
 15 16  2  0  0  0  0
 15 17  1  0  0  0  0
 17 18  2  0  0  0  0
 18 19  1  0  0  0  0
 19 20  2  0  0  0  0
 20 21  1  0  0  0  0
 21 22  1  0  0  0  0
 21 23  2  0  0  0  0
 23 17  1  0  0  0  0
 24  4  1  0  0  0  0
M  END
>  <CHROM.1>
-178.24894757,171.37735875,-46.97375196,-81.84755031,-104.11845572,-171.96030673
43.14755143,-46.44498827,5.15357501,0.69406655,-0.44144591,-1.95664109

>  <Name>
design_0

>  <RI>
0

>  <Rbt.Current_Directory>
/home/ziqiaoxu/icml18-jtnn/VAEdesign

>  <Rbt.Executable>
rbdock ($Id: //depot/dev/client3/rdock/2013.1/src/exe/rbdock.cxx#4 $)

>  <Rbt.Library>
libRbt.so (2013.1, Build901 2013/11/27)

>  <Rbt.Parameter_File>
/export/apps/rDock/src/rDock_2013.1_src//data/scripts/dock.prm

>  <Rbt.Receptor>
/home/ziqiaoxu/icml18-jtnn/VAEdesign/targets/RdRp-SARS-CoV-2/pocket_docking.prm

>  <SCORE>
-19.8683

>  <SCORE.INTER>
-18.143

>  <SCORE.INTER.CONST>
1

>  <SCORE.INTER.POLAR>
-0.660346

>  <SCORE.INTER.REPUL>
0

>  <SCORE.INTER.ROT>
6

>  <SCORE.INTER.VDW>
-27.2978

>  <SCORE.INTER.norm>
-0.755959

>  <SCORE.INTRA>
-1.72526

>  <SCORE.INTRA.DIHEDRAL>
1.97012

>  <SCORE.INTRA.DIHEDRAL.0>
2.71442

>  <SCORE.INTRA.POLAR>
0

>  <SCORE.INTRA.POLAR.0>
0

>  <SCORE.INTRA.REPUL>
0

>  <SCORE.INTRA.REPUL.0>
0

>  <SCORE.INTRA.VDW>
-2.71033

>  <SCORE.INTRA.VDW.0>
3.27108

>  <SCORE.INTRA.norm>
-0.071886

>  <SCORE.RESTR>
0

>  <SCORE.RESTR.CAVITY>
0

>  <SCORE.RESTR.norm>
0

>  <SCORE.SYSTEM>
0

>  <SCORE.SYSTEM.CONST>
0

>  <SCORE.SYSTEM.DIHEDRAL>
0

>  <SCORE.SYSTEM.norm>
0

>  <SCORE.heavy>
24

>  <SCORE.norm>
-0.827845

$$$$
design_5
 OpenBabel05252019093D

 26 28  0  0  0  0  0  0  0  0999 V2000
   43.1329  -37.2286    1.5855 C   0  0  0  0  0  0  0  0  0  0  0  0
   43.5902  -38.0074    0.5222 O   0  0  0  0  0  0  0  0  0  0  0  0
   43.4841  -39.3751    0.3847 C   0  0  0  0  0  0  0  0  0  0  0  0
   44.5051  -39.9737   -0.3579 C   0  0  0  0  0  0  0  0  0  0  0  0
   44.4698  -41.3217   -0.5373 C   0  0  0  0  0  0  0  0  0  0  0  0
   43.4647  -42.1006   -0.0111 C   0  0  0  0  0  0  0  0  0  0  0  0
   42.4230  -41.5377    0.7400 C   0  0  0  0  0  0  0  0  0  0  0  0
   41.4003  -42.3330    1.2993 N   0  0  0  0  0  0  0  0  0  0  0  0
   41.6572  -43.6161    1.7958 C   0  0  0  0  0  0  0  0  0  0  0  0
   42.8509  -44.0565    1.7584 O   0  0  0  0  0  0  0  0  0  0  0  0
   40.6697  -44.5528    2.3703 C   0  0  0  0  0  0  0  0  0  0  0  0
   41.1282  -45.4338    3.3782 N   0  0  0  0  0  0  0  0  0  0  0  0
   41.6230  -45.0976    4.6639 C   0  0  0  0  0  0  0  0  0  0  0  0
   41.6990  -43.8951    4.9957 O   0  0  0  0  0  0  0  0  0  0  0  0
   42.0522  -46.1736    5.6197 C   0  0  0  0  0  0  0  0  0  0  0  0
   40.9430  -46.8067    6.3429 C   0  0  0  0  0  0  0  0  0  0  0  0
   40.1058  -47.7249    5.8042 C   0  0  0  0  0  0  0  0  0  0  0  0
   39.0585  -48.2809    6.5291 C   0  0  0  0  0  0  0  0  0  0  0  0
   38.8419  -47.9044    7.8350 C   0  0  0  0  0  0  0  0  0  0  0  0
   39.6914  -46.9713    8.3836 C   0  0  0  0  0  0  0  0  0  0  0  0
   39.4882  -46.5777    9.6873 C   0  0  0  0  0  0  0  0  0  0  0  0
   40.2737  -45.6510   10.3330 C   0  0  0  0  0  0  0  0  0  0  0  0
   41.3352  -45.0801    9.6201 C   0  0  0  0  0  0  0  0  0  0  0  0
   41.5371  -45.4816    8.3008 C   0  0  0  0  0  0  0  0  0  0  0  0
   40.7513  -46.4066    7.6581 C   0  0  0  0  0  0  0  0  0  0  0  0
   42.4969  -40.1639    0.8980 C   0  0  0  0  0  0  0  0  0  0  0  0
  1  2  1  0  0  0  0
  2  3  1  0  0  0  0
  3  4  2  0  0  0  0
  4  5  1  0  0  0  0
  5  6  2  0  0  0  0
  6  7  1  0  0  0  0
  7  8  1  0  0  0  0
  7 26  2  0  0  0  0
  8  9  1  0  0  0  0
  9 10  2  0  0  0  0
  9 11  1  0  0  0  0
 11 12  1  0  0  0  0
 12 13  1  0  0  0  0
 13 14  2  0  0  0  0
 13 15  1  0  0  0  0
 15 16  1  0  0  0  0
 16 17  2  0  0  0  0
 17 18  1  0  0  0  0
 18 19  2  0  0  0  0
 19 20  1  0  0  0  0
 20 21  2  0  0  0  0
 21 22  1  0  0  0  0
 22 23  2  0  0  0  0
 23 24  1  0  0  0  0
 24 25  2  0  0  0  0
 25 16  1  0  0  0  0
 25 20  1  0  0  0  0
 26  3  1  0  0  0  0
M  END
>  <CHROM.1>
-150.53077931,35.62804072,-148.82222996,63.98021805,-80.84942498,76.73066110
41.67133575,-43.82838184,4.12961211,-0.39410569,1.24382361,1.13591208

>  <Name>
design_5

>  <RI>
0

>  <Rbt.Current_Directory>
/home/ziqiaoxu/icml18-jtnn/VAEdesign

>  <Rbt.Executable>
rbdock ($Id: //depot/dev/client3/rdock/2013.1/src/exe/rbdock.cxx#4 $)

>  <Rbt.Library>
libRbt.so (2013.1, Build901 2013/11/27)

>  <Rbt.Parameter_File>
/export/apps/rDock/src/rDock_2013.1_src//data/scripts/dock.prm

>  <Rbt.Receptor>
/home/ziqiaoxu/icml18-jtnn/VAEdesign/targets/RdRp-SARS-CoV-2/pocket_docking.prm

>  <SCORE>
-23.1073

>  <SCORE.INTER>
-22.7389

>  <SCORE.INTER.CONST>
1

>  <SCORE.INTER.POLAR>
-2.01445

>  <SCORE.INTER.REPUL>
0

>  <SCORE.INTER.ROT>
6

>  <SCORE.INTER.VDW>
-27.2897

>  <SCORE.INTER.norm>
-0.874571

>  <SCORE.INTRA>
-0.368443

>  <SCORE.INTRA.DIHEDRAL>
0.346565

>  <SCORE.INTRA.DIHEDRAL.0>
9.9198

>  <SCORE.INTRA.POLAR>
0

>  <SCORE.INTRA.POLAR.0>
0

>  <SCORE.INTRA.REPUL>
0

>  <SCORE.INTRA.REPUL.0>
0

>  <SCORE.INTRA.VDW>
-0.541725

>  <SCORE.INTRA.VDW.0>
-0.852746

>  <SCORE.INTRA.norm>
-0.0141709

>  <SCORE.RESTR>
0

>  <SCORE.RESTR.CAVITY>
0

>  <SCORE.RESTR.norm>
0

>  <SCORE.SYSTEM>
0

>  <SCORE.SYSTEM.CONST>
0

>  <SCORE.SYSTEM.DIHEDRAL>
0

>  <SCORE.SYSTEM.norm>
0

>  <SCORE.heavy>
26

>  <SCORE.norm>
-0.888742

$$$$
design_6
 OpenBabel05252019093D

 23 25  0  0  0  0  0  0  0  0999 V2000
   41.3089  -44.5403   10.8235 C   0  0  0  0  0  0  0  0  0  0  0  0
   40.7818  -45.4284    9.7598 C   0  0  0  0  0  0  0  0  0  0  0  0
   39.5754  -46.0902    9.8520 C   0  0  0  0  0  0  0  0  0  0  0  0
   39.0957  -46.9124    8.8580 C   0  0  0  0  0  0  0  0  0  0  0  0
   39.8283  -47.1051    7.7061 C   0  0  0  0  0  0  0  0  0  0  0  0
   39.2457  -48.1474    6.4297 S   0  0  0  0  0  0  0  0  0  0  0  0
   38.9617  -49.5227    7.0040 O   0  0  0  0  0  0  0  0  0  0  0  0
   40.2619  -48.2386    5.3234 O   0  0  0  0  0  0  0  0  0  0  0  0
   37.7665  -47.5869    5.7663 N   0  0  0  0  0  0  0  0  0  0  0  0
   37.4320  -46.2192    5.8398 C   0  0  0  0  0  0  0  0  0  0  0  0
   36.1647  -45.8695    5.4453 C   0  0  0  0  0  0  0  0  0  0  0  0
   35.7736  -44.5586    5.4909 C   0  0  0  0  0  0  0  0  0  0  0  0
   36.6409  -43.5727    5.9314 C   0  0  0  0  0  0  0  0  0  0  0  0
   37.9212  -43.9282    6.3296 C   0  0  0  0  0  0  0  0  0  0  0  0
   38.3074  -45.2542    6.2801 C   0  0  0  0  0  0  0  0  0  0  0  0
   38.5430  -42.7948    6.7047 N   0  0  0  0  0  0  0  0  0  0  0  0
   39.9123  -42.7466    7.1903 C   0  0  0  0  0  0  0  0  0  0  0  0
   37.6767  -41.7855    6.5423 C   0  0  0  0  0  0  0  0  0  0  0  0
   37.8987  -40.5707    6.7889 O   0  0  0  0  0  0  0  0  0  0  0  0
   36.4986  -42.2405    6.0670 N   0  0  0  0  0  0  0  0  0  0  0  0
   35.3007  -41.4834    5.7534 C   0  0  0  0  0  0  0  0  0  0  0  0
   41.0301  -46.4526    7.6018 C   0  0  0  0  0  0  0  0  0  0  0  0
   41.5174  -45.6178    8.6107 C   0  0  0  0  0  0  0  0  0  0  0  0
  1  2  1  0  0  0  0
  2  3  2  0  0  0  0
  3  4  1  0  0  0  0
  4  5  2  0  0  0  0
  5  6  1  0  0  0  0
  5 22  1  0  0  0  0
  6  7  2  0  0  0  0
  6  8  2  0  0  0  0
  6  9  1  0  0  0  0
  9 10  1  0  0  0  0
 10 11  2  0  0  0  0
 11 12  1  0  0  0  0
 12 13  2  0  0  0  0
 13 14  1  0  0  0  0
 14 15  2  0  0  0  0
 14 16  1  0  0  0  0
 15 10  1  0  0  0  0
 16 17  1  0  0  0  0
 16 18  1  0  0  0  0
 18 19  2  0  0  0  0
 18 20  1  0  0  0  0
 20 21  1  0  0  0  0
 20 13  1  0  0  0  0
 22 23  2  0  0  0  0
 23  2  1  0  0  0  0
M  END
>  <CHROM.1>
-55.56724078,25.24543553,-171.87417093,38.62999910,-45.24721880,6.99750090
-0.90267397,-0.73696147,0.25948425

>  <Name>
design_6

>  <RI>
0

>  <Rbt.Current_Directory>
/home/ziqiaoxu/icml18-jtnn/VAEdesign

>  <Rbt.Executable>
rbdock ($Id: //depot/dev/client3/rdock/2013.1/src/exe/rbdock.cxx#4 $)

>  <Rbt.Library>
libRbt.so (2013.1, Build901 2013/11/27)

>  <Rbt.Parameter_File>
/export/apps/rDock/src/rDock_2013.1_src//data/scripts/dock.prm

>  <Rbt.Receptor>
/home/ziqiaoxu/icml18-jtnn/VAEdesign/targets/RdRp-SARS-CoV-2/pocket_docking.prm

>  <SCORE>
-22.2613

>  <SCORE.INTER>
-18.8631

>  <SCORE.INTER.CONST>
1

>  <SCORE.INTER.POLAR>
0

>  <SCORE.INTER.REPUL>
0

>  <SCORE.INTER.ROT>
3

>  <SCORE.INTER.VDW>
-27.2631

>  <SCORE.INTER.norm>
-0.820136

>  <SCORE.INTRA>
-3.39812

>  <SCORE.INTRA.DIHEDRAL>
-6.15828

>  <SCORE.INTRA.DIHEDRAL.0>
8.81521

>  <SCORE.INTRA.POLAR>
0

>  <SCORE.INTRA.POLAR.0>
0

>  <SCORE.INTRA.REPUL>
0

>  <SCORE.INTRA.REPUL.0>
0

>  <SCORE.INTRA.VDW>
-0.318982

>  <SCORE.INTRA.VDW.0>
-1.77189

>  <SCORE.INTRA.norm>
-0.147744

>  <SCORE.RESTR>
0

>  <SCORE.RESTR.CAVITY>
0

>  <SCORE.RESTR.norm>
0

>  <SCORE.SYSTEM>
0

>  <SCORE.SYSTEM.CONST>
0

>  <SCORE.SYSTEM.DIHEDRAL>
0

>  <SCORE.SYSTEM.norm>
0

>  <SCORE.heavy>
23

>  <SCORE.norm>
-0.96788

$$$$
design_3
 OpenBabel05252019093D

 24 25  0  0  0  0  0  0  0  0999 V2000
   43.4771  -45.4156    6.4923 C   0  0  0  0  0  0  0  0  0  0  0  0
   42.7672  -45.3869    7.7127 O   0  0  0  0  0  0  0  0  0  0  0  0
   41.5871  -46.0704    7.9233 C   0  0  0  0  0  0  0  0  0  0  0  0
   41.0294  -46.9801    7.0568 C   0  0  0  0  0  0  0  0  0  0  0  0
   39.8359  -47.6094    7.3786 C   0  0  0  0  0  0  0  0  0  0  0  0
   39.1660  -47.3603    8.5564 C   0  0  0  0  0  0  0  0  0  0  0  0
   39.7543  -46.4316    9.4185 C   0  0  0  0  0  0  0  0  0  0  0  0
   40.9323  -45.8070    9.1041 C   0  0  0  0  0  0  0  0  0  0  0  0
   41.4732  -44.7842   10.0582 C   0  0  0  0  0  0  0  0  0  0  0  0
   40.6414  -43.7264   10.2116 N   0  0  0  0  0  0  0  0  0  0  0  0
   39.8124  -42.6721   10.3644 C   0  0  0  0  0  0  0  0  0  0  0  0
   39.3694  -42.1773   11.4287 O   0  0  0  0  0  0  0  0  0  0  0  0
   39.3437  -41.9748    9.0882 C   0  0  0  0  0  0  0  0  0  0  0  0
   40.1128  -40.6895    8.9568 C   0  0  0  0  0  0  0  0  0  0  0  0
   39.9276  -40.0638    7.6762 N   0  0  0  0  0  0  0  0  0  0  0  0
   40.3430  -38.7471    7.3643 C   0  0  0  0  0  0  0  0  0  0  0  0
   40.9125  -38.0504    8.2080 O   0  0  0  0  0  0  0  0  0  0  0  0
   40.0888  -38.2318    6.0339 C   0  0  0  0  0  0  0  0  0  0  0  0
   39.7565  -38.9936    4.9599 C   0  0  0  0  0  0  0  0  0  0  0  0
   39.5455  -38.4113    3.7296 C   0  0  0  0  0  0  0  0  0  0  0  0
   39.6701  -37.0359    3.5712 C   0  0  0  0  0  0  0  0  0  0  0  0
   39.4012  -36.2539    2.0078 Cl  0  0  0  0  0  0  0  0  0  0  0  0
   40.0033  -36.2691    4.6439 C   0  0  0  0  0  0  0  0  0  0  0  0
   40.2068  -36.8645    5.8483 C   0  0  0  0  0  0  0  0  0  0  0  0
  1  2  1  0  0  0  0
  2  3  1  0  0  0  0
  3  4  2  0  0  0  0
  4  5  1  0  0  0  0
  5  6  2  0  0  0  0
  6  7  1  0  0  0  0
  7  8  2  0  0  0  0
  8  9  1  0  0  0  0
  8  3  1  0  0  0  0
  9 10  1  0  0  0  0
 10 11  1  0  0  0  0
 11 12  2  0  0  0  0
 11 13  1  0  0  0  0
 13 14  1  0  0  0  0
 14 15  1  0  0  0  0
 15 16  1  0  0  0  0
 16 17  2  0  0  0  0
 16 18  1  0  0  0  0
 18 19  2  0  0  0  0
 19 20  1  0  0  0  0
 20 21  2  0  0  0  0
 21 22  1  0  0  0  0
 21 23  1  0  0  0  0
 23 24  2  0  0  0  0
 24 18  1  0  0  0  0
M  END
>  <CHROM.1>
8.05968052,115.68529046,159.12035880,-104.01073300,169.70649329,168.75619370
-15.66743970,40.34898658,-41.58523901,7.13433493,-1.01029039,1.37509037,-1.04969008

>  <Name>
design_3

>  <RI>
0

>  <Rbt.Current_Directory>
/home/ziqiaoxu/icml18-jtnn/VAEdesign

>  <Rbt.Executable>
rbdock ($Id: //depot/dev/client3/rdock/2013.1/src/exe/rbdock.cxx#4 $)

>  <Rbt.Library>
libRbt.so (2013.1, Build901 2013/11/27)

>  <Rbt.Parameter_File>
/export/apps/rDock/src/rDock_2013.1_src//data/scripts/dock.prm

>  <Rbt.Receptor>
/home/ziqiaoxu/icml18-jtnn/VAEdesign/targets/RdRp-SARS-CoV-2/pocket_docking.prm

>  <SCORE>
-20.786

>  <SCORE.INTER>
-17.447

>  <SCORE.INTER.CONST>
1

>  <SCORE.INTER.POLAR>
-0.763816

>  <SCORE.INTER.REPUL>
0

>  <SCORE.INTER.ROT>
7

>  <SCORE.INTER.VDW>
-27.25

>  <SCORE.INTER.norm>
-0.726958

>  <SCORE.INTRA>
-3.40393

>  <SCORE.INTRA.DIHEDRAL>
-1.67261

>  <SCORE.INTRA.DIHEDRAL.0>
8.95178

>  <SCORE.INTRA.POLAR>
0

>  <SCORE.INTRA.POLAR.0>
0

>  <SCORE.INTRA.REPUL>
0

>  <SCORE.INTRA.REPUL.0>
0

>  <SCORE.INTRA.VDW>
-2.56762

>  <SCORE.INTRA.VDW.0>
2.46843

>  <SCORE.INTRA.norm>
-0.14183

>  <SCORE.RESTR>
0.0648935

>  <SCORE.RESTR.CAVITY>
0.0648935

>  <SCORE.RESTR.norm>
0.00270389

>  <SCORE.SYSTEM>
0

>  <SCORE.SYSTEM.CONST>
0

>  <SCORE.SYSTEM.DIHEDRAL>
0

>  <SCORE.SYSTEM.norm>
0

>  <SCORE.heavy>
24

>  <SCORE.norm>
-0.866084

$$$$
design_14
 OpenBabel05252019093D

 24 26  0  0  0  0  0  0  0  0999 V2000
   36.2080  -46.3274    4.9595 N   0  0  0  0  0  0  0  0  0  0  0  0
   36.8338  -45.6018    5.9822 C   0  0  0  0  0  0  0  0  0  0  0  0
   36.4784  -44.4299    6.2450 O   0  0  0  0  0  0  0  0  0  0  0  0
   37.9112  -46.2017    6.7582 C   0  0  0  0  0  0  0  0  0  0  0  0
   38.2838  -47.5022    6.5322 C   0  0  0  0  0  0  0  0  0  0  0  0
   39.2967  -48.0667    7.2616 C   0  0  0  0  0  0  0  0  0  0  0  0
   39.9609  -47.3506    8.2311 C   0  0  0  0  0  0  0  0  0  0  0  0
   39.6036  -46.0267    8.4826 C   0  0  0  0  0  0  0  0  0  0  0  0
   40.3341  -45.2758    9.5240 C   0  0  0  0  0  0  0  0  0  0  0  0
   39.6535  -44.0695    9.9447 N   0  0  0  0  0  0  0  0  0  0  0  0
   40.0399  -42.8344    9.3697 C   0  0  0  0  0  0  0  0  0  0  0  0
   40.9434  -42.7863    8.5234 O   0  0  0  0  0  0  0  0  0  0  0  0
   39.3263  -41.6041    9.8153 C   0  0  0  0  0  0  0  0  0  0  0  0
   39.7708  -40.4052    9.0897 C   0  0  0  0  0  0  0  0  0  0  0  0
   39.3498  -40.0023    7.8155 C   0  0  0  0  0  0  0  0  0  0  0  0
   40.0037  -38.8368    7.5115 C   0  0  0  0  0  0  0  0  0  0  0  0
   39.8866  -38.0356    6.2784 C   0  0  0  0  0  0  0  0  0  0  0  0
   40.2440  -36.7257    6.0913 C   0  0  0  0  0  0  0  0  0  0  0  0
   40.0475  -36.1963    4.8799 C   0  0  0  0  0  0  0  0  0  0  0  0
   39.5025  -37.0091    3.9197 C   0  0  0  0  0  0  0  0  0  0  0  0
   39.2843  -38.4835    4.7434 S   0  0  0  0  0  0  0  0  0  0  0  0
   40.7622  -38.5420    8.5060 O   0  0  0  0  0  0  0  0  0  0  0  0
   40.6504  -39.4479    9.4587 N   0  0  0  0  0  0  0  0  0  0  0  0
   38.5856  -45.4763    7.7417 C   0  0  0  0  0  0  0  0  0  0  0  0
  1  2  1  0  0  0  0
  2  3  2  0  0  0  0
  2  4  1  0  0  0  0
  4  5  2  0  0  0  0
  5  6  1  0  0  0  0
  6  7  2  0  0  0  0
  7  8  1  0  0  0  0
  8  9  1  0  0  0  0
  8 24  2  0  0  0  0
  9 10  1  0  0  0  0
 10 11  1  0  0  0  0
 11 12  2  0  0  0  0
 11 13  1  0  0  0  0
 13 14  1  0  0  0  0
 14 15  1  0  0  0  0
 15 16  2  0  0  0  0
 16 17  1  0  0  0  0
 16 22  1  0  0  0  0
 17 18  2  0  0  0  0
 18 19  1  0  0  0  0
 19 20  2  0  0  0  0
 20 21  1  0  0  0  0
 21 17  1  0  0  0  0
 22 23  1  0  0  0  0
 23 14  2  0  0  0  0
 24  4  1  0  0  0  0
M  END
>  <CHROM.1>
-2.78751752,-164.03863008,-97.25726305,-176.84133613,81.01548352,161.44366093
39.27378241,-42.19548746,7.27138904,1.89284030,1.03194088,2.71843442

>  <Name>
design_14

>  <RI>
0

>  <Rbt.Current_Directory>
/home/ziqiaoxu/icml18-jtnn/VAEdesign

>  <Rbt.Executable>
rbdock ($Id: //depot/dev/client3/rdock/2013.1/src/exe/rbdock.cxx#4 $)

>  <Rbt.Library>
libRbt.so (2013.1, Build901 2013/11/27)

>  <Rbt.Parameter_File>
/export/apps/rDock/src/rDock_2013.1_src//data/scripts/dock.prm

>  <Rbt.Receptor>
/home/ziqiaoxu/icml18-jtnn/VAEdesign/targets/RdRp-SARS-CoV-2/pocket_docking.prm

>  <SCORE>
-22.3777

>  <SCORE.INTER>
-23.6556

>  <SCORE.INTER.CONST>
1

>  <SCORE.INTER.POLAR>
-2.2966

>  <SCORE.INTER.REPUL>
0

>  <SCORE.INTER.ROT>
6

>  <SCORE.INTER.VDW>
-27.2471

>  <SCORE.INTER.norm>
-0.985648

>  <SCORE.INTRA>
1.27781

>  <SCORE.INTRA.DIHEDRAL>
1.81127

>  <SCORE.INTRA.DIHEDRAL.0>
4.60092

>  <SCORE.INTRA.POLAR>
0

>  <SCORE.INTRA.POLAR.0>
0

>  <SCORE.INTRA.REPUL>
0

>  <SCORE.INTRA.REPUL.0>
0

>  <SCORE.INTRA.VDW>
0.372177

>  <SCORE.INTRA.VDW.0>
-2.11

>  <SCORE.INTRA.norm>
0.0532422

>  <SCORE.RESTR>
0

>  <SCORE.RESTR.CAVITY>
0

>  <SCORE.RESTR.norm>
0

>  <SCORE.SYSTEM>
0

>  <SCORE.SYSTEM.CONST>
0

>  <SCORE.SYSTEM.DIHEDRAL>
0

>  <SCORE.SYSTEM.norm>
0

>  <SCORE.heavy>
24

>  <SCORE.norm>
-0.932406

$$$$
design_1
 OpenBabel05252019093D

 25 28  0  0  0  0  0  0  0  0999 V2000
   42.9138  -45.0378    1.1985 C   0  0  0  0  0  0  0  0  0  0  0  0
   44.2117  -45.1611    0.7500 C   0  0  0  0  0  0  0  0  0  0  0  0
   45.2360  -45.4779    1.6175 C   0  0  0  0  0  0  0  0  0  0  0  0
   45.0138  -45.6848    2.9635 C   0  0  0  0  0  0  0  0  0  0  0  0
   46.0750  -46.0255    3.9319 C   0  0  0  0  0  0  0  0  0  0  0  0
   45.8465  -45.3365    5.2586 C   0  0  0  0  0  0  0  0  0  0  0  0
   46.5553  -44.3712    5.8151 N   0  0  0  0  0  0  0  0  0  0  0  0
   46.2111  -43.8945    6.9683 C   0  0  0  0  0  0  0  0  0  0  0  0
   45.1067  -44.4158    7.5810 C   0  0  0  0  0  0  0  0  0  0  0  0
   44.4824  -44.0734    8.8871 C   0  0  0  0  0  0  0  0  0  0  0  0
   43.1341  -43.5992    8.7772 N   0  0  0  0  0  0  0  0  0  0  0  0
   42.0908  -44.4978    9.1295 C   0  0  0  0  0  0  0  0  0  0  0  0
   41.5403  -44.3995   10.3844 C   0  0  0  0  0  0  0  0  0  0  0  0
   40.5216  -45.2521   10.7747 C   0  0  0  0  0  0  0  0  0  0  0  0
   40.0603  -46.2094    9.8852 C   0  0  0  0  0  0  0  0  0  0  0  0
   40.5962  -46.3267    8.6233 C   0  0  0  0  0  0  0  0  0  0  0  0
   40.0728  -47.3495    7.7324 C   0  0  0  0  0  0  0  0  0  0  0  0
   39.0995  -48.2354    8.0757 N   0  0  0  0  0  0  0  0  0  0  0  0
   38.8327  -49.0514    7.0422 C   0  0  0  0  0  0  0  0  0  0  0  0
   39.6542  -48.6590    6.0531 N   0  0  0  0  0  0  0  0  0  0  0  0
   40.3885  -47.6434    6.4776 N   0  0  0  0  0  0  0  0  0  0  0  0
   41.6038  -45.4645    8.2725 C   0  0  0  0  0  0  0  0  0  0  0  0
   44.6173  -45.5992    6.4186 S   0  0  0  0  0  0  0  0  0  0  0  0
   43.7045  -45.5584    3.4044 C   0  0  0  0  0  0  0  0  0  0  0  0
   42.6764  -45.2417    2.5410 C   0  0  0  0  0  0  0  0  0  0  0  0
  1  2  2  0  0  0  0
  2  3  1  0  0  0  0
  3  4  2  0  0  0  0
  4  5  1  0  0  0  0
  4 24  1  0  0  0  0
  5  6  1  0  0  0  0
  6  7  2  0  0  0  0
  7  8  1  0  0  0  0
  8  9  2  0  0  0  0
  9 10  1  0  0  0  0
  9 23  1  0  0  0  0
 10 11  1  0  0  0  0
 11 12  1  0  0  0  0
 12 13  2  0  0  0  0
 13 14  1  0  0  0  0
 14 15  2  0  0  0  0
 15 16  1  0  0  0  0
 16 17  1  0  0  0  0
 16 22  2  0  0  0  0
 17 18  1  0  0  0  0
 18 19  2  0  0  0  0
 19 20  1  0  0  0  0
 20 21  1  0  0  0  0
 21 17  2  0  0  0  0
 22 12  1  0  0  0  0
 23  6  1  0  0  0  0
 24 25  2  0  0  0  0
 25  1  1  0  0  0  0
M  END
>  <CHROM.1>
142.05436574,-111.58356056,119.03460501,103.80350745,98.17186106,-1.82127631
42.89410858,-45.70735032,6.35019013,0.78148109,-0.53423733,-1.82946666

>  <Name>
design_1

>  <RI>
0

>  <Rbt.Current_Directory>
/home/ziqiaoxu/icml18-jtnn/VAEdesign

>  <Rbt.Executable>
rbdock ($Id: //depot/dev/client3/rdock/2013.1/src/exe/rbdock.cxx#4 $)

>  <Rbt.Library>
libRbt.so (2013.1, Build901 2013/11/27)

>  <Rbt.Parameter_File>
/export/apps/rDock/src/rDock_2013.1_src//data/scripts/dock.prm

>  <Rbt.Receptor>
/home/ziqiaoxu/icml18-jtnn/VAEdesign/targets/RdRp-SARS-CoV-2/pocket_docking.prm

>  <SCORE>
-16.9962

>  <SCORE.INTER>
-21.7612

>  <SCORE.INTER.CONST>
1

>  <SCORE.INTER.POLAR>
-1.74345

>  <SCORE.INTER.REPUL>
0

>  <SCORE.INTER.ROT>
6

>  <SCORE.INTER.VDW>
-27.2335

>  <SCORE.INTER.norm>
-0.870447

>  <SCORE.INTRA>
4.76502

>  <SCORE.INTRA.DIHEDRAL>
12.5556

>  <SCORE.INTRA.DIHEDRAL.0>
4.69645

>  <SCORE.INTRA.POLAR>
0

>  <SCORE.INTRA.POLAR.0>
0

>  <SCORE.INTRA.REPUL>
0

>  <SCORE.INTRA.REPUL.0>
0

>  <SCORE.INTRA.VDW>
-1.51277

>  <SCORE.INTRA.VDW.0>
-0.650599

>  <SCORE.INTRA.norm>
0.190601

>  <SCORE.RESTR>
0

>  <SCORE.RESTR.CAVITY>
0

>  <SCORE.RESTR.norm>
0

>  <SCORE.SYSTEM>
0

>  <SCORE.SYSTEM.CONST>
0

>  <SCORE.SYSTEM.DIHEDRAL>
0

>  <SCORE.SYSTEM.norm>
0

>  <SCORE.heavy>
25

>  <SCORE.norm>
-0.679846

$$$$
design_11
 OpenBabel05252019093D

 24 26  0  0  0  0  0  0  0  0999 V2000
   50.5273  -47.0831    3.9393 C   0  0  0  0  0  0  0  0  0  0  0  0
   49.2876  -47.1295    3.1544 C   0  0  0  0  0  0  0  0  0  0  0  0
   49.3245  -47.6433    1.8743 C   0  0  0  0  0  0  0  0  0  0  0  0
   48.1541  -47.6799    1.1603 C   0  0  0  0  0  0  0  0  0  0  0  0
   46.9891  -47.2196    1.7076 C   0  0  0  0  0  0  0  0  0  0  0  0
   46.9112  -46.6936    2.9991 C   0  0  0  0  0  0  0  0  0  0  0  0
   45.6989  -46.2804    3.5748 N   0  0  0  0  0  0  0  0  0  0  0  0
   45.6643  -45.4412    4.7107 C   0  0  0  0  0  0  0  0  0  0  0  0
   46.7831  -45.0332    5.2167 O   0  0  0  0  0  0  0  0  0  0  0  0
   44.4406  -44.9895    5.3977 C   0  0  0  0  0  0  0  0  0  0  0  0
   44.6206  -45.3945    7.1799 S   0  0  0  0  0  0  0  0  0  0  0  0
   42.9714  -45.6261    7.8333 C   0  0  0  0  0  0  0  0  0  0  0  0
   42.1180  -46.5251    7.3195 N   0  0  0  0  0  0  0  0  0  0  0  0
   40.8662  -46.7270    7.7893 C   0  0  0  0  0  0  0  0  0  0  0  0
   40.0166  -47.6480    7.2311 C   0  0  0  0  0  0  0  0  0  0  0  0
   38.7570  -47.8005    7.7436 C   0  0  0  0  0  0  0  0  0  0  0  0
   38.3353  -47.0353    8.8187 C   0  0  0  0  0  0  0  0  0  0  0  0
   39.2253  -46.1199    9.3493 C   0  0  0  0  0  0  0  0  0  0  0  0
   40.4794  -45.9509    8.8547 C   0  0  0  0  0  0  0  0  0  0  0  0
   41.3154  -45.0425    9.3895 N   0  0  0  0  0  0  0  0  0  0  0  0
   40.8800  -44.2463   10.5181 C   0  0  0  0  0  0  0  0  0  0  0  0
   42.5512  -44.8615    8.9036 C   0  0  0  0  0  0  0  0  0  0  0  0
   43.3542  -44.0144    9.3879 O   0  0  0  0  0  0  0  0  0  0  0  0
   48.0883  -46.6632    3.7011 C   0  0  0  0  0  0  0  0  0  0  0  0
  1  2  1  0  0  0  0
  2  3  2  0  0  0  0
  3  4  1  0  0  0  0
  4  5  2  0  0  0  0
  5  6  1  0  0  0  0
  6  7  1  0  0  0  0
  6 24  2  0  0  0  0
  7  8  1  0  0  0  0
  8  9  2  0  0  0  0
  8 10  1  0  0  0  0
 10 11  1  0  0  0  0
 11 12  1  0  0  0  0
 12 13  2  0  0  0  0
 13 14  1  0  0  0  0
 14 15  2  0  0  0  0
 15 16  1  0  0  0  0
 16 17  2  0  0  0  0
 17 18  1  0  0  0  0
 18 19  2  0  0  0  0
 19 20  1  0  0  0  0
 19 14  1  0  0  0  0
 20 21  1  0  0  0  0
 20 22  1  0  0  0  0
 22 23  2  0  0  0  0
 22 12  1  0  0  0  0
 24  2  1  0  0  0  0
M  END
>  <CHROM.1>
-163.00873887,127.31789420,-152.32954316,56.87001566,44.11916737,-46.11924817
6.23734315,-0.57595076,0.32967311,0.95138069

>  <Name>
design_11

>  <RI>
0

>  <Rbt.Current_Directory>
/home/ziqiaoxu/icml18-jtnn/VAEdesign

>  <Rbt.Executable>
rbdock ($Id: //depot/dev/client3/rdock/2013.1/src/exe/rbdock.cxx#4 $)

>  <Rbt.Library>
libRbt.so (2013.1, Build901 2013/11/27)

>  <Rbt.Parameter_File>
/export/apps/rDock/src/rDock_2013.1_src//data/scripts/dock.prm

>  <Rbt.Receptor>
/home/ziqiaoxu/icml18-jtnn/VAEdesign/targets/RdRp-SARS-CoV-2/pocket_docking.prm

>  <SCORE>
-18.3988

>  <SCORE.INTER>
-17.8823

>  <SCORE.INTER.CONST>
1

>  <SCORE.INTER.POLAR>
-0.019633

>  <SCORE.INTER.REPUL>
0

>  <SCORE.INTER.ROT>
4

>  <SCORE.INTER.VDW>
-27.2155

>  <SCORE.INTER.norm>
-0.745096

>  <SCORE.INTRA>
-0.51654

>  <SCORE.INTRA.DIHEDRAL>
-3.64196

>  <SCORE.INTRA.DIHEDRAL.0>
9.37935

>  <SCORE.INTRA.POLAR>
0

>  <SCORE.INTRA.POLAR.0>
0

>  <SCORE.INTRA.REPUL>
0

>  <SCORE.INTRA.REPUL.0>
0

>  <SCORE.INTRA.VDW>
1.30444

>  <SCORE.INTRA.VDW.0>
-0.861343

>  <SCORE.INTRA.norm>
-0.0215225

>  <SCORE.RESTR>
0

>  <SCORE.RESTR.CAVITY>
0

>  <SCORE.RESTR.norm>
0

>  <SCORE.SYSTEM>
0

>  <SCORE.SYSTEM.CONST>
0

>  <SCORE.SYSTEM.DIHEDRAL>
0

>  <SCORE.SYSTEM.norm>
0

>  <SCORE.heavy>
24

>  <SCORE.norm>
-0.766618

$$$$
design_13
 OpenBabel05252019093D

 27 30  0  0  0  0  0  0  0  0999 V2000
   41.6039  -43.2766    7.3052 C   0  0  0  0  0  0  0  0  0  0  0  0
   41.1745  -41.8565    7.3878 C   0  0  0  0  0  0  0  0  0  0  0  0
   40.8612  -41.1175    8.4652 N   0  0  0  0  0  0  0  0  0  0  0  0
   40.5269  -39.8801    8.0773 N   0  0  0  0  0  0  0  0  0  0  0  0
   40.6248  -39.8206    6.7440 C   0  0  0  0  0  0  0  0  0  0  0  0
   40.3526  -38.6530    5.8839 C   0  0  0  0  0  0  0  0  0  0  0  0
   40.0071  -37.4471    6.4397 C   0  0  0  0  0  0  0  0  0  0  0  0
   39.7679  -36.4015    5.5901 C   0  0  0  0  0  0  0  0  0  0  0  0
   39.8679  -36.5460    4.2255 C   0  0  0  0  0  0  0  0  0  0  0  0
   40.2192  -37.7690    3.6402 C   0  0  0  0  0  0  0  0  0  0  0  0
   40.3203  -37.8749    2.1635 C   0  0  0  0  0  0  0  0  0  0  0  0
   40.8310  -39.1950    1.8432 N   0  0  0  0  0  0  0  0  0  0  0  0
   42.0939  -39.4134    1.2577 C   0  0  0  0  0  0  0  0  0  0  0  0
   42.8168  -38.4316    0.9967 O   0  0  0  0  0  0  0  0  0  0  0  0
   42.5552  -40.7524    0.9595 C   0  0  0  0  0  0  0  0  0  0  0  0
   41.8425  -41.8864    1.1951 C   0  0  0  0  0  0  0  0  0  0  0  0
   42.3521  -43.1114    0.8861 C   0  0  0  0  0  0  0  0  0  0  0  0
   43.5871  -43.2654    0.3316 C   0  0  0  0  0  0  0  0  0  0  0  0
   44.1371  -44.6055   -0.0014 C   0  0  0  0  0  0  0  0  0  0  0  0
   45.4738  -44.7714   -0.2689 C   0  0  0  0  0  0  0  0  0  0  0  0
   45.5565  -46.4490   -0.5792 S   0  0  0  0  0  0  0  0  0  0  0  0
   43.9101  -46.8318   -0.3532 C   0  0  0  0  0  0  0  0  0  0  0  0
   43.3834  -45.6599   -0.0528 N   0  0  0  0  0  0  0  0  0  0  0  0
   44.3034  -42.1129    0.0956 C   0  0  0  0  0  0  0  0  0  0  0  0
   43.8201  -40.8665    0.3945 C   0  0  0  0  0  0  0  0  0  0  0  0
   40.4568  -38.8111    4.5102 C   0  0  0  0  0  0  0  0  0  0  0  0
   41.0217  -41.0376    6.3411 N   0  0  0  0  0  0  0  0  0  0  0  0
  1  2  1  0  0  0  0
  2  3  2  0  0  0  0
  3  4  1  0  0  0  0
  4  5  1  0  0  0  0
  5  6  1  0  0  0  0
  5 27  2  0  0  0  0
  6  7  2  0  0  0  0
  7  8  1  0  0  0  0
  8  9  2  0  0  0  0
  9 10  1  0  0  0  0
 10 11  1  0  0  0  0
 10 26  2  0  0  0  0
 11 12  1  0  0  0  0
 12 13  1  0  0  0  0
 13 14  2  0  0  0  0
 13 15  1  0  0  0  0
 15 16  2  0  0  0  0
 16 17  1  0  0  0  0
 17 18  2  0  0  0  0
 18 19  1  0  0  0  0
 18 24  1  0  0  0  0
 19 20  2  0  0  0  0
 20 21  1  0  0  0  0
 21 22  1  0  0  0  0
 22 23  2  0  0  0  0
 23 19  1  0  0  0  0
 24 25  2  0  0  0  0
 25 15  1  0  0  0  0
 26  6  1  0  0  0  0
 27  2  1  0  0  0  0
M  END
>  <CHROM.1>
2.80884286,174.10083850,-113.44157075,0.49860057,-165.06719141,42.14662609
-41.29118912,2.94173490,-3.04318617,1.13333297,-0.90371933

>  <Name>
design_13

>  <RI>
0

>  <Rbt.Current_Directory>
/home/ziqiaoxu/icml18-jtnn/VAEdesign

>  <Rbt.Executable>
rbdock ($Id: //depot/dev/client3/rdock/2013.1/src/exe/rbdock.cxx#4 $)

>  <Rbt.Library>
libRbt.so (2013.1, Build901 2013/11/27)

>  <Rbt.Parameter_File>
/export/apps/rDock/src/rDock_2013.1_src//data/scripts/dock.prm

>  <Rbt.Receptor>
/home/ziqiaoxu/icml18-jtnn/VAEdesign/targets/RdRp-SARS-CoV-2/pocket_docking.prm

>  <SCORE>
-20.1964

>  <SCORE.INTER>
-21.329

>  <SCORE.INTER.CONST>
1

>  <SCORE.INTER.POLAR>
-1.32924

>  <SCORE.INTER.REPUL>
0

>  <SCORE.INTER.ROT>
5

>  <SCORE.INTER.VDW>
-27.2096

>  <SCORE.INTER.norm>
-0.789965

>  <SCORE.INTRA>
1.13266

>  <SCORE.INTRA.DIHEDRAL>
0.836042

>  <SCORE.INTRA.DIHEDRAL.0>
1.96259

>  <SCORE.INTRA.POLAR>
0

>  <SCORE.INTRA.POLAR.0>
0

>  <SCORE.INTRA.REPUL>
0

>  <SCORE.INTRA.REPUL.0>
0

>  <SCORE.INTRA.VDW>
0.714637

>  <SCORE.INTRA.VDW.0>
-1.30563

>  <SCORE.INTRA.norm>
0.0419503

>  <SCORE.RESTR>
0

>  <SCORE.RESTR.CAVITY>
0

>  <SCORE.RESTR.norm>
0

>  <SCORE.SYSTEM>
0

>  <SCORE.SYSTEM.CONST>
0

>  <SCORE.SYSTEM.DIHEDRAL>
0

>  <SCORE.SYSTEM.norm>
0

>  <SCORE.heavy>
27

>  <SCORE.norm>
-0.748015

$$$$
design_16
 OpenBabel05252019093D

 26 27  0  0  0  0  0  0  0  0999 V2000
   42.1753  -35.1999    1.9432 C   0  0  0  0  0  0  0  0  0  0  0  0
   41.7053  -35.7207    3.2972 C   0  0  0  0  0  0  0  0  0  0  0  0
   40.3050  -36.7770    3.1129 S   0  0  0  0  0  0  0  0  0  0  0  0
   40.6235  -37.8928    2.1304 O   0  0  0  0  0  0  0  0  0  0  0  0
   39.1177  -36.0093    2.5653 O   0  0  0  0  0  0  0  0  0  0  0  0
   39.9411  -37.5515    4.6344 C   0  0  0  0  0  0  0  0  0  0  0  0
   39.5387  -38.8551    4.7642 C   0  0  0  0  0  0  0  0  0  0  0  0
   39.3423  -39.4898    5.9955 C   0  0  0  0  0  0  0  0  0  0  0  0
   39.5475  -38.8292    7.1712 C   0  0  0  0  0  0  0  0  0  0  0  0
   39.4854  -39.4420    8.4301 N   0  0  0  0  0  0  0  0  0  0  0  0
   39.2647  -40.7805    8.7464 C   0  0  0  0  0  0  0  0  0  0  0  0
   38.9387  -41.6894    7.9024 O   0  0  0  0  0  0  0  0  0  0  0  0
   39.4275  -41.2117   10.1156 N   0  0  0  0  0  0  0  0  0  0  0  0
   39.2431  -42.5382   10.5559 C   0  0  0  0  0  0  0  0  0  0  0  0
   39.9981  -43.5364    9.8027 C   0  0  0  0  0  0  0  0  0  0  0  0
   39.3046  -44.7623    9.6086 C   0  0  0  0  0  0  0  0  0  0  0  0
   39.8811  -45.8385    9.0184 C   0  0  0  0  0  0  0  0  0  0  0  0
   41.1750  -45.7206    8.6014 C   0  0  0  0  0  0  0  0  0  0  0  0
   41.9297  -44.5356    8.7569 C   0  0  0  0  0  0  0  0  0  0  0  0
   43.2618  -44.5600    8.3194 N   0  0  0  0  0  0  0  0  0  0  0  0
   43.8384  -45.4719    7.4416 C   0  0  0  0  0  0  0  0  0  0  0  0
   45.2467  -45.3282    7.1030 N   0  0  0  0  0  0  0  0  0  0  0  0
   43.2493  -46.4294    6.9012 O   0  0  0  0  0  0  0  0  0  0  0  0
   41.2816  -43.4728    9.3671 C   0  0  0  0  0  0  0  0  0  0  0  0
   39.9535  -37.4950    7.0526 C   0  0  0  0  0  0  0  0  0  0  0  0
   40.1433  -36.8797    5.8474 C   0  0  0  0  0  0  0  0  0  0  0  0
  1  2  1  0  0  0  0
  2  3  1  0  0  0  0
  3  4  2  0  0  0  0
  3  5  2  0  0  0  0
  3  6  1  0  0  0  0
  6  7  2  0  0  0  0
  7  8  1  0  0  0  0
  8  9  2  0  0  0  0
  9 10  1  0  0  0  0
  9 25  1  0  0  0  0
 10 11  1  0  0  0  0
 11 12  2  0  0  0  0
 11 13  1  0  0  0  0
 13 14  1  0  0  0  0
 14 15  1  0  0  0  0
 15 16  2  0  0  0  0
 16 17  1  0  0  0  0
 17 18  2  0  0  0  0
 18 19  1  0  0  0  0
 19 20  1  0  0  0  0
 19 24  2  0  0  0  0
 20 21  1  0  0  0  0
 21 22  1  0  0  0  0
 21 23  2  0  0  0  0
 24 15  1  0  0  0  0
 25 26  2  0  0  0  0
 26  6  1  0  0  0  0
M  END
>  <CHROM.1>
54.57204576,-140.75585023,2.47336946,52.38855680,-142.98344652,18.33507136
40.71134207,-40.75771305,6.63561036,-1.73998771,-0.73575960,2.45441567

>  <Name>
design_16

>  <RI>
0

>  <Rbt.Current_Directory>
/home/ziqiaoxu/icml18-jtnn/VAEdesign

>  <Rbt.Executable>
rbdock ($Id: //depot/dev/client3/rdock/2013.1/src/exe/rbdock.cxx#4 $)

>  <Rbt.Library>
libRbt.so (2013.1, Build901 2013/11/27)

>  <Rbt.Parameter_File>
/export/apps/rDock/src/rDock_2013.1_src//data/scripts/dock.prm

>  <Rbt.Receptor>
/home/ziqiaoxu/icml18-jtnn/VAEdesign/targets/RdRp-SARS-CoV-2/pocket_docking.prm

>  <SCORE>
-22.01

>  <SCORE.INTER>
-22.6948

>  <SCORE.INTER.CONST>
1

>  <SCORE.INTER.POLAR>
-2.03776

>  <SCORE.INTER.REPUL>
0.00549734

>  <SCORE.INTER.ROT>
6

>  <SCORE.INTER.VDW>
-27.1939

>  <SCORE.INTER.norm>
-0.872876

>  <SCORE.INTRA>
0.245489

>  <SCORE.INTRA.DIHEDRAL>
-0.652242

>  <SCORE.INTRA.DIHEDRAL.0>
5.37109

>  <SCORE.INTRA.POLAR>
0

>  <SCORE.INTRA.POLAR.0>
0

>  <SCORE.INTRA.REPUL>
0

>  <SCORE.INTRA.REPUL.0>
0

>  <SCORE.INTRA.VDW>
0.571611

>  <SCORE.INTRA.VDW.0>
-2.12466

>  <SCORE.INTRA.norm>
0.0094419

>  <SCORE.RESTR>
0.439273

>  <SCORE.RESTR.CAVITY>
0.439273

>  <SCORE.RESTR.norm>
0.0168951

>  <SCORE.SYSTEM>
0

>  <SCORE.SYSTEM.CONST>
0

>  <SCORE.SYSTEM.DIHEDRAL>
0

>  <SCORE.SYSTEM.norm>
0

>  <SCORE.heavy>
26

>  <SCORE.norm>
-0.846539

$$$$
design_13
 OpenBabel05252019093D

 27 29  0  0  0  0  0  0  0  0999 V2000
   46.4590  -46.1076    3.8504 O   0  0  0  0  0  0  0  0  0  0  0  0
   45.4205  -46.0366    3.1676 C   0  0  0  0  0  0  0  0  0  0  0  0
   45.2775  -46.2841    1.8437 N   0  0  0  0  0  0  0  0  0  0  0  0
   45.1431  -46.5394    0.4910 C   0  0  0  0  0  0  0  0  0  0  0  0
   43.7648  -46.1581   -0.0450 C   0  0  0  0  0  0  0  0  0  0  0  0
   43.6413  -44.7180   -0.1245 N   0  0  0  0  0  0  0  0  0  0  0  0
   43.0961  -43.9208    0.9039 C   0  0  0  0  0  0  0  0  0  0  0  0
   42.6962  -44.4758    1.9859 O   0  0  0  0  0  0  0  0  0  0  0  0
   42.9696  -42.4810    0.7763 C   0  0  0  0  0  0  0  0  0  0  0  0
   41.8903  -41.7974    1.2854 C   0  0  0  0  0  0  0  0  0  0  0  0
   41.7459  -40.4192    1.1960 C   0  0  0  0  0  0  0  0  0  0  0  0
   42.7593  -39.7258    0.5515 C   0  0  0  0  0  0  0  0  0  0  0  0
   43.8271  -40.4228    0.0481 C   0  0  0  0  0  0  0  0  0  0  0  0
   43.9293  -41.7549    0.1567 N   0  0  0  0  0  0  0  0  0  0  0  0
   44.2447  -45.6418    3.9210 N   0  0  0  0  0  0  0  0  0  0  0  0
   44.2601  -45.3326    5.2974 C   0  0  0  0  0  0  0  0  0  0  0  0
   45.3904  -44.8244    5.8812 C   0  0  0  0  0  0  0  0  0  0  0  0
   45.4020  -44.5675    7.2549 C   0  0  0  0  0  0  0  0  0  0  0  0
   44.2647  -44.8290    8.0310 C   0  0  0  0  0  0  0  0  0  0  0  0
   43.1272  -45.3369    7.4637 C   0  0  0  0  0  0  0  0  0  0  0  0
   41.9629  -45.6341    8.2840 C   0  0  0  0  0  0  0  0  0  0  0  0
   40.9536  -46.4759    7.9408 C   0  0  0  0  0  0  0  0  0  0  0  0
   39.8550  -46.6953    8.7775 C   0  0  0  0  0  0  0  0  0  0  0  0
   39.7696  -46.0535    9.9899 C   0  0  0  0  0  0  0  0  0  0  0  0
   40.8348  -45.1869   10.3157 C   0  0  0  0  0  0  0  0  0  0  0  0
   41.8730  -45.0010    9.4878 N   0  0  0  0  0  0  0  0  0  0  0  0
   43.1567  -45.5752    6.1081 C   0  0  0  0  0  0  0  0  0  0  0  0
  1  2  2  0  0  0  0
  2  3  1  0  0  0  0
  2 15  1  0  0  0  0
  3  4  1  0  0  0  0
  4  5  1  0  0  0  0
  5  6  1  0  0  0  0
  6  7  1  0  0  0  0
  7  8  2  0  0  0  0
  7  9  1  0  0  0  0
  9 10  2  0  0  0  0
 10 11  1  0  0  0  0
 11 12  2  0  0  0  0
 12 13  1  0  0  0  0
 13 14  2  0  0  0  0
 14  9  1  0  0  0  0
 15 16  1  0  0  0  0
 16 17  2  0  0  0  0
 17 18  1  0  0  0  0
 18 19  2  0  0  0  0
 19 20  1  0  0  0  0
 20 21  1  0  0  0  0
 20 27  2  0  0  0  0
 21 22  2  0  0  0  0
 22 23  1  0  0  0  0
 23 24  2  0  0  0  0
 24 25  1  0  0  0  0
 25 26  2  0  0  0  0
 26 21  1  0  0  0  0
 27 16  1  0  0  0  0
M  END
>  <CHROM.1>
-172.17167721,72.93137674,-93.13434264,142.84903876,28.67064055,-159.56797634
43.29268138,-44.54712795,4.16754609,-1.27238823,-0.81397171,2.10673854

>  <Name>
design_13

>  <RI>
0

>  <Rbt.Current_Directory>
/home/ziqiaoxu/icml18-jtnn/VAEdesign

>  <Rbt.Executable>
rbdock ($Id: //depot/dev/client3/rdock/2013.1/src/exe/rbdock.cxx#4 $)

>  <Rbt.Library>
libRbt.so (2013.1, Build901 2013/11/27)

>  <Rbt.Parameter_File>
/export/apps/rDock/src/rDock_2013.1_src//data/scripts/dock.prm

>  <Rbt.Receptor>
/home/ziqiaoxu/icml18-jtnn/VAEdesign/targets/RdRp-SARS-CoV-2/pocket_docking.prm

>  <SCORE>
-20.1441

>  <SCORE.INTER>
-18.5016

>  <SCORE.INTER.CONST>
1

>  <SCORE.INTER.POLAR>
-0.901511

>  <SCORE.INTER.REPUL>
0.0693808

>  <SCORE.INTER.ROT>
6

>  <SCORE.INTER.VDW>
-27.1833

>  <SCORE.INTER.norm>
-0.685244

>  <SCORE.INTRA>
-1.64251

>  <SCORE.INTRA.DIHEDRAL>
3.66409

>  <SCORE.INTRA.DIHEDRAL.0>
6.68265

>  <SCORE.INTRA.POLAR>
-0.465717

>  <SCORE.INTRA.POLAR.0>
0

>  <SCORE.INTRA.REPUL>
0

>  <SCORE.INTRA.REPUL.0>
0

>  <SCORE.INTRA.VDW>
-1.89112

>  <SCORE.INTRA.VDW.0>
0.415809

>  <SCORE.INTRA.norm>
-0.0608338

>  <SCORE.RESTR>
0

>  <SCORE.RESTR.CAVITY>
0

>  <SCORE.RESTR.norm>
0

>  <SCORE.SYSTEM>
0

>  <SCORE.SYSTEM.CONST>
0

>  <SCORE.SYSTEM.DIHEDRAL>
0

>  <SCORE.SYSTEM.norm>
0

>  <SCORE.heavy>
27

>  <SCORE.norm>
-0.746078

$$$$
design_2
 OpenBabel05252019093D

 25 27  0  0  0  0  0  0  0  0999 V2000
   39.1133  -40.8433    6.8570 O   0  0  0  0  0  0  0  0  0  0  0  0
   39.3004  -39.9926    7.7333 C   0  0  0  0  0  0  0  0  0  0  0  0
   39.2859  -40.3674    9.1387 N   0  0  0  0  0  0  0  0  0  0  0  0
   39.0741  -41.6405    9.6442 C   0  0  0  0  0  0  0  0  0  0  0  0
   39.5596  -41.8812   11.0991 C   0  0  0  0  0  0  0  0  0  0  0  0
   40.3425  -43.0072   11.0566 N   0  0  0  0  0  0  0  0  0  0  0  0
   41.1278  -44.1361   11.0145 C   0  0  0  0  0  0  0  0  0  0  0  0
   41.9379  -44.4991   11.8926 O   0  0  0  0  0  0  0  0  0  0  0  0
   41.0824  -45.0828    9.8605 C   0  0  0  0  0  0  0  0  0  0  0  0
   40.0177  -45.9086    9.6107 C   0  0  0  0  0  0  0  0  0  0  0  0
   39.9982  -46.7409    8.4883 C   0  0  0  0  0  0  0  0  0  0  0  0
   41.0531  -46.7375    7.6220 C   0  0  0  0  0  0  0  0  0  0  0  0
   42.1581  -45.9124    7.8413 C   0  0  0  0  0  0  0  0  0  0  0  0
   43.2040  -45.9564    6.9606 C   0  0  0  0  0  0  0  0  0  0  0  0
   44.2989  -45.1273    7.2385 C   0  0  0  0  0  0  0  0  0  0  0  0
   44.3017  -44.3222    8.3398 C   0  0  0  0  0  0  0  0  0  0  0  0
   43.2170  -44.2998    9.2192 C   0  0  0  0  0  0  0  0  0  0  0  0
   42.1317  -45.0957    8.9803 C   0  0  0  0  0  0  0  0  0  0  0  0
   39.5263  -38.6321    7.4315 N   0  0  0  0  0  0  0  0  0  0  0  0
   39.5595  -38.0172    6.1710 C   0  0  0  0  0  0  0  0  0  0  0  0
   39.9846  -36.6919    6.1071 C   0  0  0  0  0  0  0  0  0  0  0  0
   40.0347  -36.0009    4.9205 C   0  0  0  0  0  0  0  0  0  0  0  0
   39.6568  -36.6287    3.7686 C   0  0  0  0  0  0  0  0  0  0  0  0
   39.2559  -37.8806    3.8282 N   0  0  0  0  0  0  0  0  0  0  0  0
   39.1968  -38.5829    4.9780 C   0  0  0  0  0  0  0  0  0  0  0  0
  1  2  2  0  0  0  0
  2  3  1  0  0  0  0
  2 19  1  0  0  0  0
  3  4  1  0  0  0  0
  4  5  1  0  0  0  0
  5  6  1  0  0  0  0
  6  7  1  0  0  0  0
  7  8  2  0  0  0  0
  7  9  1  0  0  0  0
  9 10  2  0  0  0  0
 10 11  1  0  0  0  0
 11 12  2  0  0  0  0
 12 13  1  0  0  0  0
 13 14  2  0  0  0  0
 14 15  1  0  0  0  0
 15 16  2  0  0  0  0
 16 17  1  0  0  0  0
 17 18  2  0  0  0  0
 18  9  1  0  0  0  0
 18 13  1  0  0  0  0
 19 20  1  0  0  0  0
 20 21  2  0  0  0  0
 21 22  1  0  0  0  0
 22 23  2  0  0  0  0
 23 24  1  0  0  0  0
 24 25  2  0  0  0  0
 25 20  1  0  0  0  0
M  END
>  <CHROM.1>
160.52199206,-128.18060971,168.13932511,-71.05524495,-171.25508089,40.70170116
-42.10543041,8.03777075,2.07074163,0.98543129,-0.88219261

>  <Name>
design_2

>  <RI>
0

>  <Rbt.Current_Directory>
/home/ziqiaoxu/icml18-jtnn/VAEdesign

>  <Rbt.Executable>
rbdock ($Id: //depot/dev/client3/rdock/2013.1/src/exe/rbdock.cxx#4 $)

>  <Rbt.Library>
libRbt.so (2013.1, Build901 2013/11/27)

>  <Rbt.Parameter_File>
/export/apps/rDock/src/rDock_2013.1_src//data/scripts/dock.prm

>  <Rbt.Receptor>
/home/ziqiaoxu/icml18-jtnn/VAEdesign/targets/RdRp-SARS-CoV-2/pocket_docking.prm

>  <SCORE>
-20.5221

>  <SCORE.INTER>
-22.7344

>  <SCORE.INTER.CONST>
1

>  <SCORE.INTER.POLAR>
-1.75109

>  <SCORE.INTER.REPUL>
0

>  <SCORE.INTER.ROT>
5

>  <SCORE.INTER.VDW>
-27.1807

>  <SCORE.INTER.norm>
-0.909376

>  <SCORE.INTRA>
2.19674

>  <SCORE.INTRA.DIHEDRAL>
6.07921

>  <SCORE.INTRA.DIHEDRAL.0>
12.7386

>  <SCORE.INTRA.POLAR>
0

>  <SCORE.INTRA.POLAR.0>
0

>  <SCORE.INTRA.REPUL>
0

>  <SCORE.INTRA.REPUL.0>
0

>  <SCORE.INTRA.VDW>
-0.842868

>  <SCORE.INTRA.VDW.0>
-0.881602

>  <SCORE.INTRA.norm>
0.0878695

>  <SCORE.RESTR>
0.0155836

>  <SCORE.RESTR.CAVITY>
0.0155836

>  <SCORE.RESTR.norm>
0.000623343

>  <SCORE.SYSTEM>
0

>  <SCORE.SYSTEM.CONST>
0

>  <SCORE.SYSTEM.DIHEDRAL>
0

>  <SCORE.SYSTEM.norm>
0

>  <SCORE.heavy>
25

>  <SCORE.norm>
-0.820883

$$$$
design_0
 OpenBabel05252019093D

 24 26  0  0  0  0  0  0  0  0999 V2000
   41.2302  -44.4713   10.8693 C   0  0  0  0  0  0  0  0  0  0  0  0
   40.7290  -45.4402    9.8450 C   0  0  0  0  0  0  0  0  0  0  0  0
   39.6268  -46.1926    9.8984 N   0  0  0  0  0  0  0  0  0  0  0  0
   39.4823  -46.9577    8.7931 C   0  0  0  0  0  0  0  0  0  0  0  0
   38.5276  -47.8882    8.4071 C   0  0  0  0  0  0  0  0  0  0  0  0
   38.6253  -48.5588    7.2104 C   0  0  0  0  0  0  0  0  0  0  0  0
   39.6967  -48.2954    6.3851 C   0  0  0  0  0  0  0  0  0  0  0  0
   40.6414  -47.3589    6.7917 C   0  0  0  0  0  0  0  0  0  0  0  0
   40.5748  -46.6692    7.9776 C   0  0  0  0  0  0  0  0  0  0  0  0
   41.3427  -45.7331    8.6239 C   0  0  0  0  0  0  0  0  0  0  0  0
   42.6095  -45.1356    8.1991 C   0  0  0  0  0  0  0  0  0  0  0  0
   42.8829  -44.0204    8.7431 O   0  0  0  0  0  0  0  0  0  0  0  0
   43.4871  -45.6836    7.2782 N   0  0  0  0  0  0  0  0  0  0  0  0
   44.7410  -45.3069    6.7627 C   0  0  0  0  0  0  0  0  0  0  0  0
   44.9907  -45.2581    5.3145 C   0  0  0  0  0  0  0  0  0  0  0  0
   44.2116  -44.3608    4.4543 C   0  0  0  0  0  0  0  0  0  0  0  0
   43.6294  -44.8641    3.3215 O   0  0  0  0  0  0  0  0  0  0  0  0
   44.0873  -45.4547    2.2010 C   0  0  0  0  0  0  0  0  0  0  0  0
   43.1924  -45.6537    1.1322 C   0  0  0  0  0  0  0  0  0  0  0  0
   43.5632  -46.2416   -0.0440 C   0  0  0  0  0  0  0  0  0  0  0  0
   44.8578  -46.6703   -0.2290 C   0  0  0  0  0  0  0  0  0  0  0  0
   45.2407  -47.2633   -1.4103 F   0  0  0  0  0  0  0  0  0  0  0  0
   45.7686  -46.4969    0.7876 C   0  0  0  0  0  0  0  0  0  0  0  0
   45.3688  -45.8991    1.9684 C   0  0  0  0  0  0  0  0  0  0  0  0
  1  2  1  0  0  0  0
  2  3  1  0  0  0  0
  3  4  1  0  0  0  0
  4  5  2  0  0  0  0
  5  6  1  0  0  0  0
  6  7  2  0  0  0  0
  7  8  1  0  0  0  0
  8  9  2  0  0  0  0
  9 10  1  0  0  0  0
  9  4  1  0  0  0  0
 10 11  1  0  0  0  0
 10  2  2  0  0  0  0
 11 12  2  0  0  0  0
 11 13  1  0  0  0  0
 13 14  1  0  0  0  0
 14 15  1  0  0  0  0
 15 16  1  0  0  0  0
 16 17  1  0  0  0  0
 17 18  1  0  0  0  0
 18 19  2  0  0  0  0
 19 20  1  0  0  0  0
 20 21  2  0  0  0  0
 21 22  1  0  0  0  0
 21 23  1  0  0  0  0
 23 24  2  0  0  0  0
 24 18  1  0  0  0  0
M  END
>  <CHROM.1>
-23.90684396,-129.11781924,60.75721468,-129.95959538,-60.69180218,-169.79804084
42.53746322,-46.05242634,5.48498383,-2.15464125,-0.59333615,-1.92702004

>  <Name>
design_0

>  <RI>
0

>  <Rbt.Current_Directory>
/home/ziqiaoxu/icml18-jtnn/VAEdesign

>  <Rbt.Executable>
rbdock ($Id: //depot/dev/client3/rdock/2013.1/src/exe/rbdock.cxx#4 $)

>  <Rbt.Library>
libRbt.so (2013.1, Build901 2013/11/27)

>  <Rbt.Parameter_File>
/export/apps/rDock/src/rDock_2013.1_src//data/scripts/dock.prm

>  <Rbt.Receptor>
/home/ziqiaoxu/icml18-jtnn/VAEdesign/targets/RdRp-SARS-CoV-2/pocket_docking.prm

>  <SCORE>
-16.1415

>  <SCORE.INTER>
-19.2469

>  <SCORE.INTER.CONST>
1

>  <SCORE.INTER.POLAR>
-1.0198

>  <SCORE.INTER.REPUL>
0

>  <SCORE.INTER.ROT>
6

>  <SCORE.INTER.VDW>
-27.1795

>  <SCORE.INTER.norm>
-0.801952

>  <SCORE.INTRA>
3.10533

>  <SCORE.INTRA.DIHEDRAL>
4.37832

>  <SCORE.INTRA.DIHEDRAL.0>
3.86495

>  <SCORE.INTRA.POLAR>
0

>  <SCORE.INTRA.POLAR.0>
0

>  <SCORE.INTRA.REPUL>
0

>  <SCORE.INTRA.REPUL.0>
0

>  <SCORE.INTRA.VDW>
0.916172

>  <SCORE.INTRA.VDW.0>
-1.20846

>  <SCORE.INTRA.norm>
0.129389

>  <SCORE.RESTR>
0

>  <SCORE.RESTR.CAVITY>
0

>  <SCORE.RESTR.norm>
0

>  <SCORE.SYSTEM>
0

>  <SCORE.SYSTEM.CONST>
0

>  <SCORE.SYSTEM.DIHEDRAL>
0

>  <SCORE.SYSTEM.norm>
0

>  <SCORE.heavy>
24

>  <SCORE.norm>
-0.672563

$$$$
design_16
 OpenBabel05252019093D

 25 27  0  0  0  0  0  0  0  0999 V2000
   39.3894  -48.5702    6.3775 C   0  0  0  0  0  0  0  0  0  0  0  0
   39.7547  -47.6143    7.4671 C   0  0  0  0  0  0  0  0  0  0  0  0
   38.9049  -47.3987    8.5316 C   0  0  0  0  0  0  0  0  0  0  0  0
   39.2362  -46.5180    9.5404 C   0  0  0  0  0  0  0  0  0  0  0  0
   40.4326  -45.8139    9.5286 C   0  0  0  0  0  0  0  0  0  0  0  0
   40.7947  -44.8659   10.6093 C   0  0  0  0  0  0  0  0  0  0  0  0
   40.4625  -43.4974   10.1083 C   0  0  0  0  0  0  0  0  0  0  0  0
   39.7147  -42.6133   10.7785 N   0  0  0  0  0  0  0  0  0  0  0  0
   39.6003  -41.5014   10.0816 N   0  0  0  0  0  0  0  0  0  0  0  0
   40.2894  -41.6793    8.9426 C   0  0  0  0  0  0  0  0  0  0  0  0
   40.4302  -40.6982    7.8768 C   0  0  0  0  0  0  0  0  0  0  0  0
   41.2716  -40.9447    6.8210 C   0  0  0  0  0  0  0  0  0  0  0  0
   41.4579  -40.0783    5.7869 C   0  0  0  0  0  0  0  0  0  0  0  0
   40.7728  -38.8496    5.7529 C   0  0  0  0  0  0  0  0  0  0  0  0
   40.9795  -37.9728    4.6557 N   0  0  0  0  0  0  0  0  0  0  0  0
   40.2601  -36.8466    4.2782 C   0  0  0  0  0  0  0  0  0  0  0  0
   39.2681  -36.4400    4.9157 O   0  0  0  0  0  0  0  0  0  0  0  0
   40.6571  -36.0619    3.0658 C   0  0  0  0  0  0  0  0  0  0  0  0
   42.0363  -35.4959    3.1960 C   0  0  0  0  0  0  0  0  0  0  0  0
   40.5073  -36.9144    1.8294 C   0  0  0  0  0  0  0  0  0  0  0  0
   39.9291  -38.5993    6.8079 C   0  0  0  0  0  0  0  0  0  0  0  0
   39.7545  -39.5089    7.8624 C   0  0  0  0  0  0  0  0  0  0  0  0
   40.8233  -42.9171    8.9604 N   0  0  0  0  0  0  0  0  0  0  0  0
   41.2821  -46.0296    8.4641 C   0  0  0  0  0  0  0  0  0  0  0  0
   40.9386  -46.9141    7.4606 C   0  0  0  0  0  0  0  0  0  0  0  0
  1  2  1  0  0  0  0
  2  3  2  0  0  0  0
  3  4  1  0  0  0  0
  4  5  2  0  0  0  0
  5  6  1  0  0  0  0
  5 24  1  0  0  0  0
  6  7  1  0  0  0  0
  7  8  2  0  0  0  0
  8  9  1  0  0  0  0
  9 10  1  0  0  0  0
 10 11  1  0  0  0  0
 10 23  2  0  0  0  0
 11 12  2  0  0  0  0
 12 13  1  0  0  0  0
 13 14  2  0  0  0  0
 14 15  1  0  0  0  0
 14 21  1  0  0  0  0
 15 16  1  0  0  0  0
 16 17  2  0  0  0  0
 16 18  1  0  0  0  0
 18 19  1  0  0  0  0
 18 20  1  0  0  0  0
 21 22  2  0  0  0  0
 22 11  1  0  0  0  0
 23  7  1  0  0  0  0
 24 25  2  0  0  0  0
 25  2  1  0  0  0  0
M  END
>  <CHROM.1>
-98.77285467,128.19363077,173.36776917,167.13287977,-61.37260617,40.35455789
-41.68125877,7.12281615,-2.53580565,1.49540736,0.49493974

>  <Name>
design_16

>  <RI>
0

>  <Rbt.Current_Directory>
/home/ziqiaoxu/icml18-jtnn/VAEdesign

>  <Rbt.Executable>
rbdock ($Id: //depot/dev/client3/rdock/2013.1/src/exe/rbdock.cxx#4 $)

>  <Rbt.Library>
libRbt.so (2013.1, Build901 2013/11/27)

>  <Rbt.Parameter_File>
/export/apps/rDock/src/rDock_2013.1_src//data/scripts/dock.prm

>  <Rbt.Receptor>
/home/ziqiaoxu/icml18-jtnn/VAEdesign/targets/RdRp-SARS-CoV-2/pocket_docking.prm

>  <SCORE>
-23.4627

>  <SCORE.INTER>
-20.8538

>  <SCORE.INTER.CONST>
1

>  <SCORE.INTER.POLAR>
-1.20336

>  <SCORE.INTER.REPUL>
0

>  <SCORE.INTER.ROT>
5

>  <SCORE.INTER.VDW>
-27.1624

>  <SCORE.INTER.norm>
-0.834153

>  <SCORE.INTRA>
-2.60891

>  <SCORE.INTRA.DIHEDRAL>
0.315711

>  <SCORE.INTRA.DIHEDRAL.0>
3.07292

>  <SCORE.INTRA.POLAR>
0

>  <SCORE.INTRA.POLAR.0>
0

>  <SCORE.INTRA.REPUL>
0

>  <SCORE.INTRA.REPUL.0>
0

>  <SCORE.INTRA.VDW>
-2.76677

>  <SCORE.INTRA.VDW.0>
0.912236

>  <SCORE.INTRA.norm>
-0.104357

>  <SCORE.RESTR>
0

>  <SCORE.RESTR.CAVITY>
0

>  <SCORE.RESTR.norm>
0

>  <SCORE.SYSTEM>
0

>  <SCORE.SYSTEM.CONST>
0

>  <SCORE.SYSTEM.DIHEDRAL>
0

>  <SCORE.SYSTEM.norm>
0

>  <SCORE.heavy>
25

>  <SCORE.norm>
-0.93851

$$$$
design_2
 OpenBabel05252019093D

 22 23  0  0  0  0  0  0  0  0999 V2000
   35.1466  -40.2854    5.8326 C   0  0  0  0  0  0  0  0  0  0  0  0
   36.1145  -41.4232    6.0722 C   0  0  0  0  0  0  0  0  0  0  0  0
   37.2291  -41.1050    6.5222 O   0  0  0  0  0  0  0  0  0  0  0  0
   35.7072  -42.7111    5.7825 N   0  0  0  0  0  0  0  0  0  0  0  0
   36.4243  -43.9112    5.9176 C   0  0  0  0  0  0  0  0  0  0  0  0
   37.7184  -43.9354    6.3705 C   0  0  0  0  0  0  0  0  0  0  0  0
   38.4033  -45.1289    6.5081 C   0  0  0  0  0  0  0  0  0  0  0  0
   37.8173  -46.3291    6.1979 C   0  0  0  0  0  0  0  0  0  0  0  0
   38.7349  -47.8016    6.3933 S   0  0  0  0  0  0  0  0  0  0  0  0
   37.9727  -48.9045    5.7124 O   0  0  0  0  0  0  0  0  0  0  0  0
   40.0455  -47.6697    5.6777 O   0  0  0  0  0  0  0  0  0  0  0  0
   38.9198  -48.2227    8.0346 N   0  0  0  0  0  0  0  0  0  0  0  0
   38.7923  -47.0794    8.9215 C   0  0  0  0  0  0  0  0  0  0  0  0
   40.0467  -46.3121    9.0103 C   0  0  0  0  0  0  0  0  0  0  0  0
   41.0451  -46.3642    8.0605 C   0  0  0  0  0  0  0  0  0  0  0  0
   42.2130  -45.6238    8.1829 C   0  0  0  0  0  0  0  0  0  0  0  0
   42.3468  -44.8230    9.2992 C   0  0  0  0  0  0  0  0  0  0  0  0
   43.8066  -43.8486    9.5278 Cl  0  0  0  0  0  0  0  0  0  0  0  0
   41.3814  -44.7310   10.2816 C   0  0  0  0  0  0  0  0  0  0  0  0
   40.2431  -45.4923   10.1010 C   0  0  0  0  0  0  0  0  0  0  0  0
   36.5057  -46.3206    5.7370 C   0  0  0  0  0  0  0  0  0  0  0  0
   35.8323  -45.1397    5.6026 C   0  0  0  0  0  0  0  0  0  0  0  0
  1  2  1  0  0  0  0
  2  3  2  0  0  0  0
  2  4  1  0  0  0  0
  4  5  1  0  0  0  0
  5  6  2  0  0  0  0
  6  7  1  0  0  0  0
  7  8  2  0  0  0  0
  8  9  1  0  0  0  0
  8 21  1  0  0  0  0
  9 10  2  0  0  0  0
  9 11  2  0  0  0  0
  9 12  1  0  0  0  0
 12 13  1  0  0  0  0
 13 14  1  0  0  0  0
 14 15  2  0  0  0  0
 15 16  1  0  0  0  0
 16 17  2  0  0  0  0
 17 18  1  0  0  0  0
 17 19  1  0  0  0  0
 19 20  2  0  0  0  0
 20 14  1  0  0  0  0
 21 22  2  0  0  0  0
 22  5  1  0  0  0  0
M  END
>  <CHROM.1>
-1.02986883,-167.99717766,-23.62551026,-81.87332383,21.05041724,39.03255473
-45.21880991,7.31973789,-2.88032603,0.53395465,-3.00421065

>  <Name>
design_2

>  <RI>
0

>  <Rbt.Current_Directory>
/home/ziqiaoxu/icml18-jtnn/VAEdesign

>  <Rbt.Executable>
rbdock ($Id: //depot/dev/client3/rdock/2013.1/src/exe/rbdock.cxx#4 $)

>  <Rbt.Library>
libRbt.so (2013.1, Build901 2013/11/27)

>  <Rbt.Parameter_File>
/export/apps/rDock/src/rDock_2013.1_src//data/scripts/dock.prm

>  <Rbt.Receptor>
/home/ziqiaoxu/icml18-jtnn/VAEdesign/targets/RdRp-SARS-CoV-2/pocket_docking.prm

>  <SCORE>
-17.1396

>  <SCORE.INTER>
-17.5434

>  <SCORE.INTER.CONST>
1

>  <SCORE.INTER.POLAR>
-0.315348

>  <SCORE.INTER.REPUL>
0.0575542

>  <SCORE.INTER.ROT>
5

>  <SCORE.INTER.VDW>
-27.159

>  <SCORE.INTER.norm>
-0.797428

>  <SCORE.INTRA>
0.403774

>  <SCORE.INTRA.DIHEDRAL>
1.84164

>  <SCORE.INTRA.DIHEDRAL.0>
2.33953

>  <SCORE.INTRA.POLAR>
0

>  <SCORE.INTRA.POLAR.0>
0

>  <SCORE.INTRA.REPUL>
0

>  <SCORE.INTRA.REPUL.0>
0

>  <SCORE.INTRA.VDW>
-0.517045

>  <SCORE.INTRA.VDW.0>
-1.48446

>  <SCORE.INTRA.norm>
0.0183534

>  <SCORE.RESTR>
0

>  <SCORE.RESTR.CAVITY>
0

>  <SCORE.RESTR.norm>
0

>  <SCORE.SYSTEM>
0

>  <SCORE.SYSTEM.CONST>
0

>  <SCORE.SYSTEM.DIHEDRAL>
0

>  <SCORE.SYSTEM.norm>
0

>  <SCORE.heavy>
22

>  <SCORE.norm>
-0.779074

$$$$
design_0
 OpenBabel05252019093D

 26 29  0  0  0  0  0  0  0  0999 V2000
   47.8297  -47.8258   -0.1050 C   0  0  0  0  0  0  0  0  0  0  0  0
   47.9032  -47.4415    1.3154 C   0  0  0  0  0  0  0  0  0  0  0  0
   48.9656  -47.8386    2.1159 C   0  0  0  0  0  0  0  0  0  0  0  0
   49.0580  -47.4922    3.4476 C   0  0  0  0  0  0  0  0  0  0  0  0
   48.0560  -46.7271    3.9874 C   0  0  0  0  0  0  0  0  0  0  0  0
   46.9809  -46.3157    3.2091 C   0  0  0  0  0  0  0  0  0  0  0  0
   45.9157  -45.5081    3.7707 C   0  0  0  0  0  0  0  0  0  0  0  0
   45.3208  -44.6980    3.0372 O   0  0  0  0  0  0  0  0  0  0  0  0
   45.5431  -45.6237    5.1281 N   0  0  0  0  0  0  0  0  0  0  0  0
   44.5058  -44.8680    5.7585 C   0  0  0  0  0  0  0  0  0  0  0  0
   44.4802  -44.9670    7.2596 C   0  0  0  0  0  0  0  0  0  0  0  0
   43.1290  -45.4986    7.6453 C   0  0  0  0  0  0  0  0  0  0  0  0
   42.3919  -46.4173    6.9962 N   0  0  0  0  0  0  0  0  0  0  0  0
   41.2346  -46.6364    7.6493 C   0  0  0  0  0  0  0  0  0  0  0  0
   40.1367  -47.4455    7.4470 C   0  0  0  0  0  0  0  0  0  0  0  0
   39.0702  -47.4462    8.3236 C   0  0  0  0  0  0  0  0  0  0  0  0
   39.0806  -46.6308    9.4296 C   0  0  0  0  0  0  0  0  0  0  0  0
   40.1707  -45.8101    9.6542 C   0  0  0  0  0  0  0  0  0  0  0  0
   41.2376  -45.8208    8.7615 C   0  0  0  0  0  0  0  0  0  0  0  0
   42.3992  -45.1461    8.7275 N   0  0  0  0  0  0  0  0  0  0  0  0
   46.9028  -46.6732    1.8686 C   0  0  0  0  0  0  0  0  0  0  0  0
   45.8243  -46.2715    1.0444 N   0  0  0  0  0  0  0  0  0  0  0  0
   44.5446  -46.6036    1.0626 C   0  0  0  0  0  0  0  0  0  0  0  0
   43.9068  -45.9377    0.0439 C   0  0  0  0  0  0  0  0  0  0  0  0
   44.8201  -45.1728   -0.6219 C   0  0  0  0  0  0  0  0  0  0  0  0
   46.0153  -45.3967    0.0214 C   0  0  0  0  0  0  0  0  0  0  0  0
  1  2  1  0  0  0  0
  2  3  2  0  0  0  0
  3  4  1  0  0  0  0
  4  5  2  0  0  0  0
  5  6  1  0  0  0  0
  6  7  1  0  0  0  0
  6 21  2  0  0  0  0
  7  8  2  0  0  0  0
  7  9  1  0  0  0  0
  9 10  1  0  0  0  0
 10 11  1  0  0  0  0
 11 12  1  0  0  0  0
 12 13  2  0  0  0  0
 13 14  1  0  0  0  0
 14 15  2  0  0  0  0
 15 16  1  0  0  0  0
 16 17  2  0  0  0  0
 17 18  1  0  0  0  0
 18 19  2  0  0  0  0
 19 20  1  0  0  0  0
 19 14  1  0  0  0  0
 20 12  1  0  0  0  0
 21 22  1  0  0  0  0
 21  2  1  0  0  0  0
 22 23  1  0  0  0  0
 23 24  2  0  0  0  0
 24 25  1  0  0  0  0
 25 26  2  0  0  0  0
 26 22  1  0  0  0  0
M  END
>  <CHROM.1>
149.06026685,-168.32498979,-121.65455912,36.62913651,112.58199939,44.45582490
-46.21719748,4.49254018,0.86996729,0.05694149,-1.57500330

>  <Name>
design_0

>  <RI>
0

>  <Rbt.Current_Directory>
/home/ziqiaoxu/icml18-jtnn/VAEdesign

>  <Rbt.Executable>
rbdock ($Id: //depot/dev/client3/rdock/2013.1/src/exe/rbdock.cxx#4 $)

>  <Rbt.Library>
libRbt.so (2013.1, Build901 2013/11/27)

>  <Rbt.Parameter_File>
/export/apps/rDock/src/rDock_2013.1_src//data/scripts/dock.prm

>  <Rbt.Receptor>
/home/ziqiaoxu/icml18-jtnn/VAEdesign/targets/RdRp-SARS-CoV-2/pocket_docking.prm

>  <SCORE>
-17.5469

>  <SCORE.INTER>
-19.7961

>  <SCORE.INTER.CONST>
1

>  <SCORE.INTER.POLAR>
-0.894427

>  <SCORE.INTER.REPUL>
0

>  <SCORE.INTER.ROT>
5

>  <SCORE.INTER.VDW>
-27.1551

>  <SCORE.INTER.norm>
-0.761389

>  <SCORE.INTRA>
2.24923

>  <SCORE.INTRA.DIHEDRAL>
2.79073

>  <SCORE.INTRA.DIHEDRAL.0>
19.5678

>  <SCORE.INTRA.POLAR>
0

>  <SCORE.INTRA.POLAR.0>
0

>  <SCORE.INTRA.REPUL>
0

>  <SCORE.INTRA.REPUL.0>
0

>  <SCORE.INTRA.VDW>
0.853871

>  <SCORE.INTRA.VDW.0>
-1.93522

>  <SCORE.INTRA.norm>
0.086509

>  <SCORE.RESTR>
0

>  <SCORE.RESTR.CAVITY>
0

>  <SCORE.RESTR.norm>
0

>  <SCORE.SYSTEM>
0

>  <SCORE.SYSTEM.CONST>
0

>  <SCORE.SYSTEM.DIHEDRAL>
0

>  <SCORE.SYSTEM.norm>
0

>  <SCORE.heavy>
26

>  <SCORE.norm>
-0.67488

$$$$
design_5
 OpenBabel05252019093D

 26 28  0  0  0  0  0  0  0  0999 V2000
   38.8662  -48.5185    7.4914 C   0  0  0  0  0  0  0  0  0  0  0  0
   38.9430  -47.2909    8.2435 N   0  0  0  0  0  0  0  0  0  0  0  0
   37.7590  -46.7928    8.9055 C   0  0  0  0  0  0  0  0  0  0  0  0
   40.1468  -46.5480    8.3576 C   0  0  0  0  0  0  0  0  0  0  0  0
   40.3419  -45.6148    9.3578 C   0  0  0  0  0  0  0  0  0  0  0  0
   41.5339  -44.9304    9.4087 C   0  0  0  0  0  0  0  0  0  0  0  0
   42.5603  -45.1298    8.5006 C   0  0  0  0  0  0  0  0  0  0  0  0
   43.8086  -44.3807    8.5971 C   0  0  0  0  0  0  0  0  0  0  0  0
   43.9100  -43.4632    9.4400 O   0  0  0  0  0  0  0  0  0  0  0  0
   44.9546  -44.6838    7.7198 C   0  0  0  0  0  0  0  0  0  0  0  0
   44.7156  -44.1691    6.3321 C   0  0  0  0  0  0  0  0  0  0  0  0
   45.6555  -44.8504    5.3691 C   0  0  0  0  0  0  0  0  0  0  0  0
   46.8361  -44.9388    5.7351 O   0  0  0  0  0  0  0  0  0  0  0  0
   45.1687  -45.3379    4.1424 N   0  0  0  0  0  0  0  0  0  0  0  0
   45.9282  -45.9913    3.1567 C   0  0  0  0  0  0  0  0  0  0  0  0
   47.1699  -46.5522    3.3335 C   0  0  0  0  0  0  0  0  0  0  0  0
   47.8418  -47.1859    2.2812 C   0  0  0  0  0  0  0  0  0  0  0  0
   47.2634  -47.2573    1.0419 C   0  0  0  0  0  0  0  0  0  0  0  0
   46.0031  -46.7020    0.8135 C   0  0  0  0  0  0  0  0  0  0  0  0
   45.4403  -46.7861   -0.4457 C   0  0  0  0  0  0  0  0  0  0  0  0
   44.1978  -46.2263   -0.6304 C   0  0  0  0  0  0  0  0  0  0  0  0
   43.5735  -45.6090    0.4468 C   0  0  0  0  0  0  0  0  0  0  0  0
   44.1452  -45.5443    1.6537 N   0  0  0  0  0  0  0  0  0  0  0  0
   45.3664  -46.0888    1.8548 C   0  0  0  0  0  0  0  0  0  0  0  0
   42.3472  -46.0649    7.5098 C   0  0  0  0  0  0  0  0  0  0  0  0
   41.1615  -46.7531    7.4498 C   0  0  0  0  0  0  0  0  0  0  0  0
  1  2  1  0  0  0  0
  2  3  1  0  0  0  0
  2  4  1  0  0  0  0
  4  5  2  0  0  0  0
  5  6  1  0  0  0  0
  6  7  2  0  0  0  0
  7  8  1  0  0  0  0
  7 25  1  0  0  0  0
  8  9  2  0  0  0  0
  8 10  1  0  0  0  0
 10 11  1  0  0  0  0
 11 12  1  0  0  0  0
 12 13  2  0  0  0  0
 12 14  1  0  0  0  0
 14 15  1  0  0  0  0
 15 16  2  0  0  0  0
 16 17  1  0  0  0  0
 17 18  2  0  0  0  0
 18 19  1  0  0  0  0
 19 20  2  0  0  0  0
 20 21  1  0  0  0  0
 21 22  2  0  0  0  0
 22 23  1  0  0  0  0
 23 24  2  0  0  0  0
 24 15  1  0  0  0  0
 24 19  1  0  0  0  0
 25 26  2  0  0  0  0
 26  4  1  0  0  0  0
M  END
>  <CHROM.1>
-160.81356964,-6.28222217,75.00276788,-162.04165633,-45.17790818,16.80545266
43.63456606,-45.88702498,5.31003050,2.25831292,0.35632533,1.25887503

>  <Name>
design_5

>  <RI>
0

>  <Rbt.Current_Directory>
/home/ziqiaoxu/icml18-jtnn/VAEdesign

>  <Rbt.Executable>
rbdock ($Id: //depot/dev/client3/rdock/2013.1/src/exe/rbdock.cxx#4 $)

>  <Rbt.Library>
libRbt.so (2013.1, Build901 2013/11/27)

>  <Rbt.Parameter_File>
/export/apps/rDock/src/rDock_2013.1_src//data/scripts/dock.prm

>  <Rbt.Receptor>
/home/ziqiaoxu/icml18-jtnn/VAEdesign/targets/RdRp-SARS-CoV-2/pocket_docking.prm

>  <SCORE>
-17.9319

>  <SCORE.INTER>
-16.4484

>  <SCORE.INTER.CONST>
1

>  <SCORE.INTER.POLAR>
-0.204102

>  <SCORE.INTER.REPUL>
0

>  <SCORE.INTER.ROT>
6

>  <SCORE.INTER.VDW>
-27.1545

>  <SCORE.INTER.norm>
-0.632631

>  <SCORE.INTRA>
-1.48354

>  <SCORE.INTRA.DIHEDRAL>
5.18885

>  <SCORE.INTRA.DIHEDRAL.0>
2.32432

>  <SCORE.INTRA.POLAR>
0.0262926

>  <SCORE.INTRA.POLAR.0>
-0.0262926

>  <SCORE.INTRA.REPUL>
0

>  <SCORE.INTRA.REPUL.0>
0

>  <SCORE.INTRA.VDW>
-4.16736

>  <SCORE.INTRA.VDW.0>
7.45544

>  <SCORE.INTRA.norm>
-0.0570592

>  <SCORE.RESTR>
0

>  <SCORE.RESTR.CAVITY>
0

>  <SCORE.RESTR.norm>
0

>  <SCORE.SYSTEM>
0

>  <SCORE.SYSTEM.CONST>
0

>  <SCORE.SYSTEM.DIHEDRAL>
0

>  <SCORE.SYSTEM.norm>
0

>  <SCORE.heavy>
26

>  <SCORE.norm>
-0.68969

$$$$
design_3
 OpenBabel05252019093D

 26 28  0  0  0  0  0  0  0  0999 V2000
   43.1644  -45.5290    6.1636 C   0  0  0  0  0  0  0  0  0  0  0  0
   41.9823  -46.0578    6.8766 C   0  0  0  0  0  0  0  0  0  0  0  0
   41.5783  -45.7429    8.1437 C   0  0  0  0  0  0  0  0  0  0  0  0
   40.4402  -46.4647    8.3902 C   0  0  0  0  0  0  0  0  0  0  0  0
   39.5789  -46.4937    9.6140 C   0  0  0  0  0  0  0  0  0  0  0  0
   40.3775  -45.8751   10.7165 C   0  0  0  0  0  0  0  0  0  0  0  0
   40.6396  -44.4234   10.5436 C   0  0  0  0  0  0  0  0  0  0  0  0
   41.8240  -44.0634   10.3468 O   0  0  0  0  0  0  0  0  0  0  0  0
   39.6067  -43.4635   10.5983 N   0  0  0  0  0  0  0  0  0  0  0  0
   39.7151  -42.0499   10.4775 C   0  0  0  0  0  0  0  0  0  0  0  0
   39.9224  -41.6107    9.1008 C   0  0  0  0  0  0  0  0  0  0  0  0
   40.2099  -42.5547    8.2802 O   0  0  0  0  0  0  0  0  0  0  0  0
   39.8318  -40.3169    8.6442 N   0  0  0  0  0  0  0  0  0  0  0  0
   40.0097  -39.8398    7.2830 C   0  0  2  0  0  0  0  0  0  0  0  0
   41.3538  -40.2178    6.6734 C   0  0  0  0  0  0  0  0  0  0  0  0
   41.0817  -40.1893    5.1476 C   0  0  0  0  0  0  0  0  0  0  0  0
   40.6804  -38.8138    4.7811 C   0  0  0  0  0  0  0  0  0  0  0  0
   40.9029  -38.3627    3.4785 C   0  0  0  0  0  0  0  0  0  0  0  0
   40.5582  -37.0606    3.1248 C   0  0  0  0  0  0  0  0  0  0  0  0
   39.9988  -36.2140    4.0480 C   0  0  0  0  0  0  0  0  0  0  0  0
   39.7791  -36.6617    5.3255 C   0  0  0  0  0  0  0  0  0  0  0  0
   40.1171  -37.9648    5.7070 C   0  0  0  0  0  0  0  0  0  0  0  0
   39.8312  -38.3774    7.1150 C   0  0  0  0  0  0  0  0  0  0  0  0
   40.1487  -47.2179    7.2849 N   0  0  0  0  0  0  0  0  0  0  0  0
   39.0499  -48.1346    7.1312 C   0  0  0  0  0  0  0  0  0  0  0  0
   41.0783  -46.9564    6.4038 N   0  0  0  0  0  0  0  0  0  0  0  0
  1  2  1  0  0  0  0
  2  3  1  0  0  0  0
  3  4  2  0  0  0  0
  4  5  1  0  0  0  0
  4 24  1  0  0  0  0
  5  6  1  0  0  0  0
  6  7  1  0  0  0  0
  7  8  2  0  0  0  0
  7  9  1  0  0  0  0
  9 10  1  0  0  0  0
 10 11  1  0  0  0  0
 11 12  2  0  0  0  0
 11 13  1  0  0  0  0
 14 13  1  1  0  0  0
 14 15  1  0  0  0  0
 15 16  1  0  0  0  0
 16 17  1  0  0  0  0
 17 18  2  0  0  0  0
 18 19  1  0  0  0  0
 19 20  2  0  0  0  0
 20 21  1  0  0  0  0
 21 22  2  0  0  0  0
 22 23  1  0  0  0  0
 22 17  1  0  0  0  0
 23 14  1  0  0  0  0
 24 25  1  0  0  0  0
 24 26  1  0  0  0  0
 26  2  2  0  0  0  0
M  END
>  <CHROM.1>
-15.81748275,67.46226499,-113.04271362,75.93635514,-11.88101941,-56.08060800
40.51555609,-42.41480878,7.42349246,-1.45783917,1.32449564,-0.51566323

>  <Name>
design_3

>  <RI>
0

>  <Rbt.Current_Directory>
/home/ziqiaoxu/icml18-jtnn/VAEdesign

>  <Rbt.Executable>
rbdock ($Id: //depot/dev/client3/rdock/2013.1/src/exe/rbdock.cxx#4 $)

>  <Rbt.Library>
libRbt.so (2013.1, Build901 2013/11/27)

>  <Rbt.Parameter_File>
/export/apps/rDock/src/rDock_2013.1_src//data/scripts/dock.prm

>  <Rbt.Receptor>
/home/ziqiaoxu/icml18-jtnn/VAEdesign/targets/RdRp-SARS-CoV-2/pocket_docking.prm

>  <SCORE>
-21.5907

>  <SCORE.INTER>
-20.6479

>  <SCORE.INTER.CONST>
1

>  <SCORE.INTER.POLAR>
-1.44354

>  <SCORE.INTER.REPUL>
0

>  <SCORE.INTER.ROT>
6

>  <SCORE.INTER.VDW>
-27.1399

>  <SCORE.INTER.norm>
-0.794151

>  <SCORE.INTRA>
-0.955843

>  <SCORE.INTRA.DIHEDRAL>
-0.791699

>  <SCORE.INTRA.DIHEDRAL.0>
6.28702

>  <SCORE.INTRA.POLAR>
0

>  <SCORE.INTRA.POLAR.0>
0

>  <SCORE.INTRA.REPUL>
0

>  <SCORE.INTRA.REPUL.0>
0

>  <SCORE.INTRA.VDW>
-0.559993

>  <SCORE.INTRA.VDW.0>
0.796736

>  <SCORE.INTRA.norm>
-0.0367632

>  <SCORE.RESTR>
0.0130679

>  <SCORE.RESTR.CAVITY>
0.0130679

>  <SCORE.RESTR.norm>
0.00050261

>  <SCORE.SYSTEM>
0

>  <SCORE.SYSTEM.CONST>
0

>  <SCORE.SYSTEM.DIHEDRAL>
0

>  <SCORE.SYSTEM.norm>
0

>  <SCORE.heavy>
26

>  <SCORE.norm>
-0.830411

$$$$
design_5
 OpenBabel05252019093D

 25 26  0  0  0  0  0  0  0  0999 V2000
   41.7423  -39.4004    1.4505 C   0  0  0  0  0  0  0  0  0  0  0  0
   42.7560  -40.2973    0.8069 C   0  0  0  0  0  0  0  0  0  0  0  0
   43.7706  -39.7370    0.0649 C   0  0  0  0  0  0  0  0  0  0  0  0
   44.7068  -40.5325   -0.5364 C   0  0  0  0  0  0  0  0  0  0  0  0
   45.8278  -39.9340   -1.3508 C   0  0  0  0  0  0  0  0  0  0  0  0
   44.6391  -41.8986   -0.4023 C   0  0  0  0  0  0  0  0  0  0  0  0
   43.6073  -42.4825    0.3553 C   0  0  0  0  0  0  0  0  0  0  0  0
   43.5242  -43.8079    0.5294 N   0  0  0  0  0  0  0  0  0  0  0  0
   43.4413  -45.1340    0.7034 C   0  0  0  0  0  0  0  0  0  0  0  0
   43.3517  -46.0584   -0.1291 O   0  0  0  0  0  0  0  0  0  0  0  0
   43.4745  -45.6271    2.1748 C   0  0  0  0  0  0  0  0  0  0  0  0
   44.7456  -45.1690    2.7568 C   0  0  0  0  0  0  0  0  0  0  0  0
   45.0234  -45.6350    4.0671 N   0  0  0  0  0  0  0  0  0  0  0  0
   44.4234  -44.9098    5.2063 C   0  0  0  0  0  0  0  0  0  0  0  0
   43.7411  -43.9103    4.9146 O   0  0  0  0  0  0  0  0  0  0  0  0
   44.6766  -45.3998    6.4771 N   0  0  0  0  0  0  0  0  0  0  0  0
   44.1956  -44.8304    7.6935 C   0  0  0  0  0  0  0  0  0  0  0  0
   42.8555  -45.2965    8.0513 C   0  0  0  0  0  0  0  0  0  0  0  0
   42.2455  -44.7867    9.1761 C   0  0  0  0  0  0  0  0  0  0  0  0
   40.9781  -45.1549    9.5584 C   0  0  0  0  0  0  0  0  0  0  0  0
   40.3067  -46.0636    8.7831 C   0  0  0  0  0  0  0  0  0  0  0  0
   38.6940  -46.5400    9.2789 Cl  0  0  0  0  0  0  0  0  0  0  0  0
   40.9019  -46.5802    7.6573 C   0  0  0  0  0  0  0  0  0  0  0  0
   42.1589  -46.2112    7.2845 C   0  0  0  0  0  0  0  0  0  0  0  0
   42.6457  -41.6491    0.9709 C   0  0  0  0  0  0  0  0  0  0  0  0
  1  2  1  0  0  0  0
  2  3  2  0  0  0  0
  3  4  1  0  0  0  0
  4  5  1  0  0  0  0
  4  6  2  0  0  0  0
  6  7  1  0  0  0  0
  7  8  1  0  0  0  0
  7 25  2  0  0  0  0
  8  9  1  0  0  0  0
  9 10  2  0  0  0  0
  9 11  1  0  0  0  0
 11 12  1  0  0  0  0
 12 13  1  0  0  0  0
 13 14  1  0  0  0  0
 14 15  2  0  0  0  0
 14 16  1  0  0  0  0
 16 17  1  0  0  0  0
 17 18  1  0  0  0  0
 18 19  2  0  0  0  0
 19 20  1  0  0  0  0
 20 21  2  0  0  0  0
 21 22  1  0  0  0  0
 21 23  1  0  0  0  0
 23 24  2  0  0  0  0
 24 18  1  0  0  0  0
 25  2  1  0  0  0  0
M  END
>  <CHROM.1>
-3.03609610,-59.32346618,-174.07215869,-82.99723973,85.68323224,-177.44392158
42.90625530,-44.05949657,4.10374902,1.09168557,0.84832561,-0.73236374

>  <Name>
design_5

>  <RI>
0

>  <Rbt.Current_Directory>
/home/ziqiaoxu/icml18-jtnn/VAEdesign

>  <Rbt.Executable>
rbdock ($Id: //depot/dev/client3/rdock/2013.1/src/exe/rbdock.cxx#4 $)

>  <Rbt.Library>
libRbt.so (2013.1, Build901 2013/11/27)

>  <Rbt.Parameter_File>
/export/apps/rDock/src/rDock_2013.1_src//data/scripts/dock.prm

>  <Rbt.Receptor>
/home/ziqiaoxu/icml18-jtnn/VAEdesign/targets/RdRp-SARS-CoV-2/pocket_docking.prm

>  <SCORE>
-24.8864

>  <SCORE.INTER>
-22.0305

>  <SCORE.INTER.CONST>
1

>  <SCORE.INTER.POLAR>
-1.85359

>  <SCORE.INTER.REPUL>
0.00224351

>  <SCORE.INTER.ROT>
6

>  <SCORE.INTER.VDW>
-27.1395

>  <SCORE.INTER.norm>
-0.881221

>  <SCORE.INTRA>
-2.85591

>  <SCORE.INTRA.DIHEDRAL>
-1.81949

>  <SCORE.INTRA.DIHEDRAL.0>
11.2752

>  <SCORE.INTRA.POLAR>
0

>  <SCORE.INTRA.POLAR.0>
0

>  <SCORE.INTRA.REPUL>
0

>  <SCORE.INTRA.REPUL.0>
0

>  <SCORE.INTRA.VDW>
-1.94617

>  <SCORE.INTRA.VDW.0>
0.514117

>  <SCORE.INTRA.norm>
-0.114237

>  <SCORE.RESTR>
0

>  <SCORE.RESTR.CAVITY>
0

>  <SCORE.RESTR.norm>
0

>  <SCORE.SYSTEM>
0

>  <SCORE.SYSTEM.CONST>
0

>  <SCORE.SYSTEM.DIHEDRAL>
0

>  <SCORE.SYSTEM.norm>
0

>  <SCORE.heavy>
25

>  <SCORE.norm>
-0.995457

$$$$
design_1
 OpenBabel05252019093D

 24 26  0  0  0  0  0  0  0  0999 V2000
   39.6517  -36.3340    2.4070 C   0  0  0  0  0  0  0  0  0  0  0  0
   39.7724  -36.9935    3.7455 C   0  0  0  0  0  0  0  0  0  0  0  0
   39.5724  -38.3560    3.7761 C   0  0  0  0  0  0  0  0  0  0  0  0
   39.6635  -39.0195    5.0033 C   0  0  0  0  0  0  0  0  0  0  0  0
   39.9487  -38.3141    6.1545 C   0  0  0  0  0  0  0  0  0  0  0  0
   40.0016  -39.0247    7.3868 N   0  0  0  0  0  0  0  0  0  0  0  0
   40.5688  -38.5832    8.5272 N   0  0  0  0  0  0  0  0  0  0  0  0
   40.4235  -39.4617    9.4940 N   0  0  0  0  0  0  0  0  0  0  0  0
   39.7385  -40.5247    8.9911 C   0  0  0  0  0  0  0  0  0  0  0  0
   39.3253  -41.7327    9.7758 C   0  0  0  0  0  0  0  0  0  0  0  0
   40.2775  -42.8493    9.5370 C   0  0  0  0  0  0  0  0  0  0  0  0
   41.2895  -42.6493    8.8145 O   0  0  0  0  0  0  0  0  0  0  0  0
   40.0063  -44.1028   10.1426 N   0  0  0  0  0  0  0  0  0  0  0  0
   40.9291  -45.1949    9.9189 C   0  0  0  0  0  0  0  0  0  0  0  0
   40.2723  -46.1778    9.0295 C   0  0  0  0  0  0  0  0  0  0  0  0
   40.9869  -46.5699    7.9084 C   0  0  0  0  0  0  0  0  0  0  0  0
   40.3931  -47.4539    7.0520 C   0  0  0  0  0  0  0  0  0  0  0  0
   39.1381  -47.9609    7.2567 C   0  0  0  0  0  0  0  0  0  0  0  0
   38.5806  -48.8323    6.3817 F   0  0  0  0  0  0  0  0  0  0  0  0
   38.4418  -47.5613    8.3788 C   0  0  0  0  0  0  0  0  0  0  0  0
   39.0329  -46.6620    9.2582 C   0  0  0  0  0  0  0  0  0  0  0  0
   39.5093  -40.2071    7.7079 N   0  0  0  0  0  0  0  0  0  0  0  0
   40.1429  -36.9628    6.0873 C   0  0  0  0  0  0  0  0  0  0  0  0
   40.0597  -36.2619    4.8802 C   0  0  0  0  0  0  0  0  0  0  0  0
  1  2  1  0  0  0  0
  2  3  2  0  0  0  0
  3  4  1  0  0  0  0
  4  5  2  0  0  0  0
  5  6  1  0  0  0  0
  5 23  1  0  0  0  0
  6  7  1  0  0  0  0
  7  8  2  0  0  0  0
  8  9  1  0  0  0  0
  9 10  1  0  0  0  0
  9 22  2  0  0  0  0
 10 11  1  0  0  0  0
 11 12  2  0  0  0  0
 11 13  1  0  0  0  0
 13 14  1  0  0  0  0
 14 15  1  0  0  0  0
 15 16  2  0  0  0  0
 16 17  1  0  0  0  0
 17 18  2  0  0  0  0
 18 19  1  0  0  0  0
 18 20  1  0  0  0  0
 20 21  2  0  0  0  0
 21 15  1  0  0  0  0
 22  6  1  0  0  0  0
 23 24  2  0  0  0  0
 24  2  1  0  0  0  0
M  END
>  <CHROM.1>
162.93016419,-99.39470722,3.58406120,-108.61491460,128.41049905,39.89495992
-42.07525859,7.40741688,1.41839214,-1.37716146,-0.45733036

>  <Name>
design_1

>  <RI>
0

>  <Rbt.Current_Directory>
/home/ziqiaoxu/icml18-jtnn/VAEdesign

>  <Rbt.Executable>
rbdock ($Id: //depot/dev/client3/rdock/2013.1/src/exe/rbdock.cxx#4 $)

>  <Rbt.Library>
libRbt.so (2013.1, Build901 2013/11/27)

>  <Rbt.Parameter_File>
/export/apps/rDock/src/rDock_2013.1_src//data/scripts/dock.prm

>  <Rbt.Receptor>
/home/ziqiaoxu/icml18-jtnn/VAEdesign/targets/RdRp-SARS-CoV-2/pocket_docking.prm

>  <SCORE>
-23.6103

>  <SCORE.INTER>
-21.3758

>  <SCORE.INTER.CONST>
1

>  <SCORE.INTER.POLAR>
-1.36486

>  <SCORE.INTER.REPUL>
0

>  <SCORE.INTER.ROT>
5

>  <SCORE.INTER.VDW>
-27.1352

>  <SCORE.INTER.norm>
-0.890656

>  <SCORE.INTRA>
-2.23458

>  <SCORE.INTRA.DIHEDRAL>
-4.91721

>  <SCORE.INTRA.DIHEDRAL.0>
10.897

>  <SCORE.INTRA.POLAR>
0

>  <SCORE.INTRA.POLAR.0>
0

>  <SCORE.INTRA.REPUL>
0

>  <SCORE.INTRA.REPUL.0>
0

>  <SCORE.INTRA.VDW>
0.224022

>  <SCORE.INTRA.VDW.0>
-1.54115

>  <SCORE.INTRA.norm>
-0.0931076

>  <SCORE.RESTR>
0

>  <SCORE.RESTR.CAVITY>
0

>  <SCORE.RESTR.norm>
0

>  <SCORE.SYSTEM>
0

>  <SCORE.SYSTEM.CONST>
0

>  <SCORE.SYSTEM.DIHEDRAL>
0

>  <SCORE.SYSTEM.norm>
0

>  <SCORE.heavy>
24

>  <SCORE.norm>
-0.983764

$$$$
design_13
 OpenBabel05252019093D

 24 26  0  0  0  0  0  0  0  0999 V2000
   43.3757  -43.8517    6.4952 O   0  0  0  0  0  0  0  0  0  0  0  0
   44.3345  -44.6230    6.8169 C   0  0  0  0  0  0  0  0  0  0  0  0
   45.0150  -45.3262    5.8012 N   0  0  0  0  0  0  0  0  0  0  0  0
   44.6380  -45.1782    4.4229 C   0  0  0  0  0  0  0  0  0  0  0  0
   43.2054  -45.5680    4.1469 C   0  0  0  0  0  0  0  0  0  0  0  0
   43.0271  -45.7515    2.6672 C   0  0  0  0  0  0  0  0  0  0  0  0
   42.9900  -44.4613    1.9374 C   0  0  0  0  0  0  0  0  0  0  0  0
   41.9149  -43.6094    2.0111 C   0  0  0  0  0  0  0  0  0  0  0  0
   41.8514  -42.4060    1.3449 C   0  0  0  0  0  0  0  0  0  0  0  0
   42.9349  -42.0534    0.5660 C   0  0  0  0  0  0  0  0  0  0  0  0
   44.0266  -42.8955    0.4777 C   0  0  0  0  0  0  0  0  0  0  0  0
   44.0628  -44.0944    1.1558 C   0  0  0  0  0  0  0  0  0  0  0  0
   44.7121  -44.7723    8.1787 N   0  0  0  0  0  0  0  0  0  0  0  0
   43.9949  -44.0430    9.1840 C   0  0  0  0  0  0  0  0  0  0  0  0
   42.6408  -44.6780    9.4379 C   0  0  0  0  0  0  0  0  0  0  0  0
   41.9140  -44.3291   10.5479 C   0  0  0  0  0  0  0  0  0  0  0  0
   40.5142  -45.2925   10.3544 S   0  0  0  0  0  0  0  0  0  0  0  0
   40.9444  -46.0628    8.8940 C   0  0  0  0  0  0  0  0  0  0  0  0
   40.1752  -47.0758    8.0968 C   0  0  0  0  0  0  0  0  0  0  0  0
   39.0674  -47.6949    8.5759 C   0  0  0  0  0  0  0  0  0  0  0  0
   38.4585  -48.5958    7.7533 C   0  0  0  0  0  0  0  0  0  0  0  0
   39.4199  -48.5677    6.3515 S   0  0  0  0  0  0  0  0  0  0  0  0
   40.5763  -47.4146    6.8328 C   0  0  0  0  0  0  0  0  0  0  0  0
   42.1271  -45.5484    8.6303 N   0  0  0  0  0  0  0  0  0  0  0  0
  1  2  2  0  0  0  0
  2  3  1  0  0  0  0
  2 13  1  0  0  0  0
  3  4  1  0  0  0  0
  4  5  1  0  0  0  0
  5  6  1  0  0  0  0
  6  7  1  0  0  0  0
  7  8  2  0  0  0  0
  8  9  1  0  0  0  0
  9 10  2  0  0  0  0
 10 11  1  0  0  0  0
 11 12  2  0  0  0  0
 12  7  1  0  0  0  0
 13 14  1  0  0  0  0
 14 15  1  0  0  0  0
 15 16  2  0  0  0  0
 16 17  1  0  0  0  0
 17 18  1  0  0  0  0
 18 19  1  0  0  0  0
 18 24  2  0  0  0  0
 19 20  1  0  0  0  0
 20 21  2  0  0  0  0
 21 22  1  0  0  0  0
 22 23  1  0  0  0  0
 23 19  2  0  0  0  0
 24 15  1  0  0  0  0
M  END
>  <CHROM.1>
-59.36083844,-164.16391195,-74.43439847,-72.20065398,75.63254891,165.83192230
-11.21161388,42.13639929,-45.33957978,6.12892750,-1.12059794,0.69908569,1.63213710

>  <Name>
design_13

>  <RI>
0

>  <Rbt.Current_Directory>
/home/ziqiaoxu/icml18-jtnn/VAEdesign

>  <Rbt.Executable>
rbdock ($Id: //depot/dev/client3/rdock/2013.1/src/exe/rbdock.cxx#4 $)

>  <Rbt.Library>
libRbt.so (2013.1, Build901 2013/11/27)

>  <Rbt.Parameter_File>
/export/apps/rDock/src/rDock_2013.1_src//data/scripts/dock.prm

>  <Rbt.Receptor>
/home/ziqiaoxu/icml18-jtnn/VAEdesign/targets/RdRp-SARS-CoV-2/pocket_docking.prm

>  <SCORE>
-20.8573

>  <SCORE.INTER>
-20.8162

>  <SCORE.INTER.CONST>
1

>  <SCORE.INTER.POLAR>
-1.78885

>  <SCORE.INTER.REPUL>
0

>  <SCORE.INTER.ROT>
7

>  <SCORE.INTER.VDW>
-27.1341

>  <SCORE.INTER.norm>
-0.867342

>  <SCORE.INTRA>
-0.041133

>  <SCORE.INTRA.DIHEDRAL>
2.88936

>  <SCORE.INTRA.DIHEDRAL.0>
4.45374

>  <SCORE.INTRA.POLAR>
0

>  <SCORE.INTRA.POLAR.0>
0

>  <SCORE.INTRA.REPUL>
0

>  <SCORE.INTRA.REPUL.0>
0

>  <SCORE.INTRA.VDW>
-1.48581

>  <SCORE.INTRA.VDW.0>
-0.717479

>  <SCORE.INTRA.norm>
-0.00171387

>  <SCORE.RESTR>
0

>  <SCORE.RESTR.CAVITY>
0

>  <SCORE.RESTR.norm>
0

>  <SCORE.SYSTEM>
0

>  <SCORE.SYSTEM.CONST>
0

>  <SCORE.SYSTEM.DIHEDRAL>
0

>  <SCORE.SYSTEM.norm>
0

>  <SCORE.heavy>
24

>  <SCORE.norm>
-0.869056

$$$$
design_6
 OpenBabel05252019093D

 27 30  0  0  0  0  0  0  0  0999 V2000
   39.9149  -40.0345    8.4220 C   0  0  0  0  0  0  0  0  0  0  0  0
   40.0262  -41.4622    8.8122 C   0  0  0  0  0  0  0  0  0  0  0  0
   40.4912  -42.3987    7.9105 C   0  0  0  0  0  0  0  0  0  0  0  0
   40.5878  -43.7379    8.2997 C   0  0  0  0  0  0  0  0  0  0  0  0
   40.2322  -44.1432    9.5541 C   0  0  0  0  0  0  0  0  0  0  0  0
   40.3567  -45.5861    9.9153 C   0  0  0  0  0  0  0  0  0  0  0  0
   40.2136  -46.4109    8.7408 N   0  0  0  0  0  0  0  0  0  0  0  0
   38.9476  -47.1586    8.6420 C   0  0  0  0  0  0  0  0  0  0  0  0
   38.2159  -46.7832    7.4026 C   0  0  0  0  0  0  0  0  0  0  0  0
   37.7652  -45.4808    7.3383 C   0  0  0  0  0  0  0  0  0  0  0  0
   37.0728  -45.0086    6.2418 C   0  0  0  0  0  0  0  0  0  0  0  0
   36.8265  -45.8633    5.1844 C   0  0  0  0  0  0  0  0  0  0  0  0
   37.2885  -47.1720    5.2675 C   0  0  0  0  0  0  0  0  0  0  0  0
   37.9805  -47.6433    6.3639 C   0  0  0  0  0  0  0  0  0  0  0  0
   41.1880  -46.5293    7.7187 C   0  0  0  0  0  0  0  0  0  0  0  0
   40.8924  -47.3164    6.7496 O   0  0  0  0  0  0  0  0  0  0  0  0
   42.4597  -45.8620    7.6602 C   0  0  0  0  0  0  0  0  0  0  0  0
   43.1032  -45.0801    8.5450 N   0  0  0  0  0  0  0  0  0  0  0  0
   44.2798  -44.6656    8.0732 C   0  0  0  0  0  0  0  0  0  0  0  0
   45.2858  -43.8935    8.5297 N   0  0  0  0  0  0  0  0  0  0  0  0
   46.3761  -43.6637    7.7752 C   0  0  0  0  0  0  0  0  0  0  0  0
   46.4826  -44.2217    6.5067 C   0  0  0  0  0  0  0  0  0  0  0  0
   45.4499  -45.0085    6.0500 C   0  0  0  0  0  0  0  0  0  0  0  0
   44.3865  -45.1956    6.8623 N   0  0  0  0  0  0  0  0  0  0  0  0
   43.3201  -45.9007    6.6117 N   0  0  0  0  0  0  0  0  0  0  0  0
   39.7660  -43.2218   10.4669 C   0  0  0  0  0  0  0  0  0  0  0  0
   39.6721  -41.8848   10.0706 C   0  0  0  0  0  0  0  0  0  0  0  0
  1  2  1  0  0  0  0
  2  3  2  0  0  0  0
  3  4  1  0  0  0  0
  4  5  2  0  0  0  0
  5  6  1  0  0  0  0
  5 26  1  0  0  0  0
  6  7  1  0  0  0  0
  7  8  1  0  0  0  0
  7 15  1  0  0  0  0
  8  9  1  0  0  0  0
  9 10  2  0  0  0  0
 10 11  1  0  0  0  0
 11 12  2  0  0  0  0
 12 13  1  0  0  0  0
 13 14  2  0  0  0  0
 14  9  1  0  0  0  0
 15 16  2  0  0  0  0
 15 17  1  0  0  0  0
 17 18  1  0  0  0  0
 18 19  2  0  0  0  0
 19 20  1  0  0  0  0
 20 21  2  0  0  0  0
 21 22  1  0  0  0  0
 22 23  2  0  0  0  0
 23 24  1  0  0  0  0
 24 25  1  0  0  0  0
 24 19  1  0  0  0  0
 25 17  2  0  0  0  0
 26 27  2  0  0  0  0
 27  2  1  0  0  0  0
M  END
>  <CHROM.1>
-28.13425502,-107.40044173,120.74722145,-65.54591477,6.32020313,41.07313212
-44.87092760,7.76482671,0.23180496,0.04891223,0.49033398

>  <Name>
design_6

>  <RI>
0

>  <Rbt.Current_Directory>
/home/ziqiaoxu/icml18-jtnn/VAEdesign

>  <Rbt.Executable>
rbdock ($Id: //depot/dev/client3/rdock/2013.1/src/exe/rbdock.cxx#4 $)

>  <Rbt.Library>
libRbt.so (2013.1, Build901 2013/11/27)

>  <Rbt.Parameter_File>
/export/apps/rDock/src/rDock_2013.1_src//data/scripts/dock.prm

>  <Rbt.Receptor>
/home/ziqiaoxu/icml18-jtnn/VAEdesign/targets/RdRp-SARS-CoV-2/pocket_docking.prm

>  <SCORE>
-17.5713

>  <SCORE.INTER>
-16.7286

>  <SCORE.INTER.CONST>
1

>  <SCORE.INTER.POLAR>
0

>  <SCORE.INTER.REPUL>
0

>  <SCORE.INTER.ROT>
5

>  <SCORE.INTER.VDW>
-27.1286

>  <SCORE.INTER.norm>
-0.619576

>  <SCORE.INTRA>
-0.842739

>  <SCORE.INTRA.DIHEDRAL>
0.134716

>  <SCORE.INTRA.DIHEDRAL.0>
3.83967

>  <SCORE.INTRA.POLAR>
0

>  <SCORE.INTRA.POLAR.0>
0

>  <SCORE.INTRA.REPUL>
0

>  <SCORE.INTRA.REPUL.0>
0

>  <SCORE.INTRA.VDW>
-0.910097

>  <SCORE.INTRA.VDW.0>
-1.70967

>  <SCORE.INTRA.norm>
-0.0312126

>  <SCORE.RESTR>
0

>  <SCORE.RESTR.CAVITY>
0

>  <SCORE.RESTR.norm>
0

>  <SCORE.SYSTEM>
0

>  <SCORE.SYSTEM.CONST>
0

>  <SCORE.SYSTEM.DIHEDRAL>
0

>  <SCORE.SYSTEM.norm>
0

>  <SCORE.heavy>
27

>  <SCORE.norm>
-0.650789

$$$$
design_11
 OpenBabel05252019093D

 25 27  0  0  0  0  0  0  0  0999 V2000
   39.4473  -36.1194    2.0195 C   0  0  0  0  0  0  0  0  0  0  0  0
   39.5637  -37.1884    3.0985 C   0  0  0  0  0  0  0  0  0  0  0  0
   39.7619  -38.3487    2.7017 O   0  0  0  0  0  0  0  0  0  0  0  0
   39.4520  -36.8653    4.4468 N   0  0  0  0  0  0  0  0  0  0  0  0
   39.5423  -37.7325    5.5668 C   0  0  0  0  0  0  0  0  0  0  0  0
   40.2275  -37.2331    6.6854 C   0  0  0  0  0  0  0  0  0  0  0  0
   40.3747  -38.0095    7.7967 C   0  0  0  0  0  0  0  0  0  0  0  0
   39.8365  -39.3070    7.8110 C   0  0  0  0  0  0  0  0  0  0  0  0
   39.9847  -40.1447    8.9859 C   0  0  0  0  0  0  0  0  0  0  0  0
   40.6469  -39.7055    9.9884 O   0  0  0  0  0  0  0  0  0  0  0  0
   39.4355  -41.4375    9.0978 N   0  0  0  0  0  0  0  0  0  0  0  0
   39.6057  -42.2491   10.2946 C   0  0  0  0  0  0  0  0  0  0  0  0
   39.6002  -43.6926    9.9294 C   0  0  0  0  0  0  0  0  0  0  0  0
   40.9857  -44.2665    9.8960 C   0  0  0  0  0  0  0  0  0  0  0  0
   41.1741  -45.2678    8.8741 N   0  0  0  0  0  0  0  0  0  0  0  0
   42.2187  -45.4751    8.0573 C   0  0  0  0  0  0  0  0  0  0  0  0
   42.0106  -46.5090    7.2460 N   0  0  0  0  0  0  0  0  0  0  0  0
   40.7925  -47.0083    7.5270 C   0  0  0  0  0  0  0  0  0  0  0  0
   40.0507  -48.0714    7.0105 C   0  0  0  0  0  0  0  0  0  0  0  0
   38.8045  -48.3023    7.5517 C   0  0  0  0  0  0  0  0  0  0  0  0
   38.2680  -47.5435    8.5623 C   0  0  0  0  0  0  0  0  0  0  0  0
   39.0072  -46.4978    9.0644 C   0  0  0  0  0  0  0  0  0  0  0  0
   40.2698  -46.2371    8.5404 C   0  0  0  0  0  0  0  0  0  0  0  0
   39.1725  -39.7791    6.7146 C   0  0  0  0  0  0  0  0  0  0  0  0
   39.0133  -38.9911    5.5626 C   0  0  0  0  0  0  0  0  0  0  0  0
  1  2  1  0  0  0  0
  2  3  2  0  0  0  0
  2  4  1  0  0  0  0
  4  5  1  0  0  0  0
  5  6  2  0  0  0  0
  6  7  1  0  0  0  0
  7  8  2  0  0  0  0
  8  9  1  0  0  0  0
  8 24  1  0  0  0  0
  9 10  2  0  0  0  0
  9 11  1  0  0  0  0
 11 12  1  0  0  0  0
 12 13  1  0  0  0  0
 13 14  1  0  0  0  0
 14 15  1  0  0  0  0
 15 16  1  0  0  0  0
 16 17  2  0  0  0  0
 17 18  1  0  0  0  0
 18 19  2  0  0  0  0
 19 20  1  0  0  0  0
 20 21  2  0  0  0  0
 21 22  1  0  0  0  0
 22 23  2  0  0  0  0
 23 15  1  0  0  0  0
 23 18  1  0  0  0  0
 24 25  2  0  0  0  0
 25  5  1  0  0  0  0
M  END
>  <CHROM.1>
140.29507355,-2.28224787,-150.17075274,101.67914709,-145.00699553,139.41202649
39.97237527,-42.00162834,7.29981059,2.27220451,-1.49208964,0.31439372

>  <Name>
design_11

>  <RI>
0

>  <Rbt.Current_Directory>
/home/ziqiaoxu/icml18-jtnn/VAEdesign

>  <Rbt.Executable>
rbdock ($Id: //depot/dev/client3/rdock/2013.1/src/exe/rbdock.cxx#4 $)

>  <Rbt.Library>
libRbt.so (2013.1, Build901 2013/11/27)

>  <Rbt.Parameter_File>
/export/apps/rDock/src/rDock_2013.1_src//data/scripts/dock.prm

>  <Rbt.Receptor>
/home/ziqiaoxu/icml18-jtnn/VAEdesign/targets/RdRp-SARS-CoV-2/pocket_docking.prm

>  <SCORE>
-13.9126

>  <SCORE.INTER>
-20.4811

>  <SCORE.INTER.CONST>
1

>  <SCORE.INTER.POLAR>
-1.39829

>  <SCORE.INTER.REPUL>
0

>  <SCORE.INTER.ROT>
6

>  <SCORE.INTER.VDW>
-27.1269

>  <SCORE.INTER.norm>
-0.819244

>  <SCORE.INTRA>
6.17013

>  <SCORE.INTRA.DIHEDRAL>
11.8758

>  <SCORE.INTRA.DIHEDRAL.0>
4.66245

>  <SCORE.INTRA.POLAR>
0

>  <SCORE.INTRA.POLAR.0>
0

>  <SCORE.INTRA.REPUL>
0

>  <SCORE.INTRA.REPUL.0>
0

>  <SCORE.INTRA.VDW>
0.232235

>  <SCORE.INTRA.VDW.0>
-0.616131

>  <SCORE.INTRA.norm>
0.246805

>  <SCORE.RESTR>
0.398326

>  <SCORE.RESTR.CAVITY>
0.398326

>  <SCORE.RESTR.norm>
0.015933

>  <SCORE.SYSTEM>
0

>  <SCORE.SYSTEM.CONST>
0

>  <SCORE.SYSTEM.DIHEDRAL>
0

>  <SCORE.SYSTEM.norm>
0

>  <SCORE.heavy>
25

>  <SCORE.norm>
-0.556505

$$$$
design_6
 OpenBabel05252019093D

 26 29  0  0  0  0  0  0  0  0999 V2000
   38.4813  -49.0861    6.5058 C   0  0  0  0  0  0  0  0  0  0  0  0
   38.8705  -48.0873    7.5561 C   0  0  0  0  0  0  0  0  0  0  0  0
   38.1225  -47.6934    8.5993 N   0  0  0  0  0  0  0  0  0  0  0  0
   38.8192  -46.7913    9.3076 N   0  0  0  0  0  0  0  0  0  0  0  0
   40.0146  -46.6029    8.7231 C   0  0  0  0  0  0  0  0  0  0  0  0
   41.0939  -45.7177    9.1397 C   0  0  0  0  0  0  0  0  0  0  0  0
   41.0374  -44.9853   10.3071 C   0  0  0  0  0  0  0  0  0  0  0  0
   42.0691  -44.1492   10.6910 C   0  0  0  0  0  0  0  0  0  0  0  0
   43.1985  -44.0197    9.9109 C   0  0  0  0  0  0  0  0  0  0  0  0
   43.2602  -44.7499    8.7426 C   0  0  0  0  0  0  0  0  0  0  0  0
   44.4661  -44.6297    7.8867 C   0  0  0  0  0  0  0  0  0  0  0  0
   44.1158  -44.8968    6.4785 N   0  0  0  0  0  0  0  0  0  0  0  0
   45.1055  -45.1723    5.5363 C   0  0  0  0  0  0  0  0  0  0  0  0
   46.3111  -45.1745    5.9943 O   0  0  0  0  0  0  0  0  0  0  0  0
   44.9551  -45.4552    4.1177 C   0  0  0  0  0  0  0  0  0  0  0  0
   43.7517  -45.2468    3.4452 C   0  0  0  0  0  0  0  0  0  0  0  0
   43.9224  -45.6083    2.1333 C   0  0  0  0  0  0  0  0  0  0  0  0
   43.0588  -45.6020    1.0491 C   0  0  0  0  0  0  0  0  0  0  0  0
   43.5052  -46.0255   -0.1638 C   0  0  0  0  0  0  0  0  0  0  0  0
   44.8094  -46.4543   -0.2950 C   0  0  0  0  0  0  0  0  0  0  0  0
   45.6852  -46.4690    0.7687 C   0  0  0  0  0  0  0  0  0  0  0  0
   45.2189  -46.0347    2.0022 C   0  0  0  0  0  0  0  0  0  0  0  0
   45.8138  -45.9298    3.2163 N   0  0  0  0  0  0  0  0  0  0  0  0
   47.1994  -46.3042    3.4335 C   0  0  0  0  0  0  0  0  0  0  0  0
   42.2231  -45.5867    8.3623 C   0  0  0  0  0  0  0  0  0  0  0  0
   40.0237  -47.4097    7.6488 N   0  0  0  0  0  0  0  0  0  0  0  0
  1  2  1  0  0  0  0
  2  3  2  0  0  0  0
  3  4  1  0  0  0  0
  4  5  1  0  0  0  0
  5  6  1  0  0  0  0
  5 26  2  0  0  0  0
  6  7  2  0  0  0  0
  7  8  1  0  0  0  0
  8  9  2  0  0  0  0
  9 10  1  0  0  0  0
 10 11  1  0  0  0  0
 10 25  2  0  0  0  0
 11 12  1  0  0  0  0
 12 13  1  0  0  0  0
 13 14  2  0  0  0  0
 13 15  1  0  0  0  0
 15 16  2  0  0  0  0
 16 17  1  0  0  0  0
 17 18  2  0  0  0  0
 18 19  1  0  0  0  0
 19 20  2  0  0  0  0
 20 21  1  0  0  0  0
 21 22  2  0  0  0  0
 22 23  1  0  0  0  0
 22 17  1  0  0  0  0
 23 24  1  0  0  0  0
 23 15  1  0  0  0  0
 25  6  1  0  0  0  0
 26  2  1  0  0  0  0
M  END
>  <CHROM.1>
4.40368852,-152.26341283,-163.95614152,11.99437984,42.89149167,-45.93588949
5.83666985,2.23087091,0.43970472,1.30361741

>  <Name>
design_6

>  <RI>
0

>  <Rbt.Current_Directory>
/home/ziqiaoxu/icml18-jtnn/VAEdesign

>  <Rbt.Executable>
rbdock ($Id: //depot/dev/client3/rdock/2013.1/src/exe/rbdock.cxx#4 $)

>  <Rbt.Library>
libRbt.so (2013.1, Build901 2013/11/27)

>  <Rbt.Parameter_File>
/export/apps/rDock/src/rDock_2013.1_src//data/scripts/dock.prm

>  <Rbt.Receptor>
/home/ziqiaoxu/icml18-jtnn/VAEdesign/targets/RdRp-SARS-CoV-2/pocket_docking.prm

>  <SCORE>
-20.632

>  <SCORE.INTER>
-21.1924

>  <SCORE.INTER.CONST>
1

>  <SCORE.INTER.POLAR>
-1.0198

>  <SCORE.INTER.REPUL>
0

>  <SCORE.INTER.ROT>
4

>  <SCORE.INTER.VDW>
-27.1251

>  <SCORE.INTER.norm>
-0.815093

>  <SCORE.INTRA>
0.560395

>  <SCORE.INTRA.DIHEDRAL>
0.560368

>  <SCORE.INTRA.DIHEDRAL.0>
1.94134

>  <SCORE.INTRA.POLAR>
0

>  <SCORE.INTRA.POLAR.0>
0

>  <SCORE.INTRA.REPUL>
0

>  <SCORE.INTRA.REPUL.0>
0

>  <SCORE.INTRA.VDW>
0.280211

>  <SCORE.INTRA.VDW.0>
-0.779224

>  <SCORE.INTRA.norm>
0.0215536

>  <SCORE.RESTR>
0

>  <SCORE.RESTR.CAVITY>
0

>  <SCORE.RESTR.norm>
0

>  <SCORE.SYSTEM>
0

>  <SCORE.SYSTEM.CONST>
0

>  <SCORE.SYSTEM.DIHEDRAL>
0

>  <SCORE.SYSTEM.norm>
0

>  <SCORE.heavy>
26

>  <SCORE.norm>
-0.79354

$$$$
design_4
 OpenBabel05252019093D

 24 26  0  0  0  0  0  0  0  0999 V2000
   39.2855  -48.5592    6.6443 C   0  0  0  0  0  0  0  0  0  0  0  0
   39.8669  -47.5461    7.5752 C   0  0  0  0  0  0  0  0  0  0  0  0
   39.1848  -47.1650    8.7104 C   0  0  0  0  0  0  0  0  0  0  0  0
   39.7719  -46.2228    9.5356 C   0  0  0  0  0  0  0  0  0  0  0  0
   41.0017  -45.6603    9.2619 C   0  0  0  0  0  0  0  0  0  0  0  0
   41.6928  -46.0471    8.1107 C   0  0  0  0  0  0  0  0  0  0  0  0
   42.9917  -45.4608    7.8105 C   0  0  0  0  0  0  0  0  0  0  0  0
   43.6913  -44.5371    8.4854 N   0  0  0  0  0  0  0  0  0  0  0  0
   44.8343  -44.3045    7.8316 C   0  0  0  0  0  0  0  0  0  0  0  0
   45.8858  -43.3608    8.2339 C   0  0  0  0  0  0  0  0  0  0  0  0
   46.5202  -43.8768    9.4502 N   0  0  0  0  0  0  0  0  0  0  0  0
   46.3551  -43.1737   10.6573 C   0  0  0  0  0  0  0  0  0  0  0  0
   46.4582  -41.7999   10.6312 C   0  0  0  0  0  0  0  0  0  0  0  0
   46.2466  -41.0180   11.7520 C   0  0  0  0  0  0  0  0  0  0  0  0
   45.9271  -41.6019   12.9195 C   0  0  0  0  0  0  0  0  0  0  0  0
   45.8095  -42.9860   13.0057 C   0  0  0  0  0  0  0  0  0  0  0  0
   45.4529  -43.5538   14.3424 C   0  0  0  0  0  0  0  0  0  0  0  0
   46.0239  -43.7760   11.8757 C   0  0  0  0  0  0  0  0  0  0  0  0
   45.9552  -45.2245   11.9842 C   0  0  0  0  0  0  0  0  0  0  0  0
   46.8615  -46.0924   11.3199 N   0  0  0  0  0  0  0  0  0  0  0  0
   45.0583  -45.7980   12.6981 O   0  0  0  0  0  0  0  0  0  0  0  0
   44.8198  -45.1197    6.7222 C   0  0  0  0  0  0  0  0  0  0  0  0
   43.7066  -45.7812    6.7606 O   0  0  0  0  0  0  0  0  0  0  0  0
   41.0958  -46.9845    7.3010 C   0  0  0  0  0  0  0  0  0  0  0  0
  1  2  1  0  0  0  0
  2  3  2  0  0  0  0
  3  4  1  0  0  0  0
  4  5  2  0  0  0  0
  5  6  1  0  0  0  0
  6  7  1  0  0  0  0
  6 24  2  0  0  0  0
  7  8  2  0  0  0  0
  8  9  1  0  0  0  0
  9 10  1  0  0  0  0
  9 22  2  0  0  0  0
 10 11  1  0  0  0  0
 11 12  1  0  0  0  0
 12 13  2  0  0  0  0
 13 14  1  0  0  0  0
 14 15  2  0  0  0  0
 15 16  1  0  0  0  0
 16 17  1  0  0  0  0
 16 18  2  0  0  0  0
 18 19  1  0  0  0  0
 18 12  1  0  0  0  0
 19 20  1  0  0  0  0
 19 21  2  0  0  0  0
 22 23  1  0  0  0  0
 23  7  1  0  0  0  0
 24  2  1  0  0  0  0
M  END
>  <CHROM.1>
-0.73947744,68.57061629,-112.73324553,-42.91650440,38.08928558,43.97203432
-44.85779435,9.74309577,2.53482166,-0.55921075,-1.64338791

>  <Name>
design_4

>  <RI>
0

>  <Rbt.Current_Directory>
/home/ziqiaoxu/icml18-jtnn/VAEdesign

>  <Rbt.Executable>
rbdock ($Id: //depot/dev/client3/rdock/2013.1/src/exe/rbdock.cxx#4 $)

>  <Rbt.Library>
libRbt.so (2013.1, Build901 2013/11/27)

>  <Rbt.Parameter_File>
/export/apps/rDock/src/rDock_2013.1_src//data/scripts/dock.prm

>  <Rbt.Receptor>
/home/ziqiaoxu/icml18-jtnn/VAEdesign/targets/RdRp-SARS-CoV-2/pocket_docking.prm

>  <SCORE>
-23.9979

>  <SCORE.INTER>
-25.1377

>  <SCORE.INTER.CONST>
1

>  <SCORE.INTER.POLAR>
-2.4856

>  <SCORE.INTER.REPUL>
0

>  <SCORE.INTER.ROT>
5

>  <SCORE.INTER.VDW>
-27.0867

>  <SCORE.INTER.norm>
-1.04741

>  <SCORE.INTRA>
1.13987

>  <SCORE.INTRA.DIHEDRAL>
8.60264

>  <SCORE.INTRA.DIHEDRAL.0>
5.44149

>  <SCORE.INTRA.POLAR>
0.0724824

>  <SCORE.INTRA.POLAR.0>
-0.0724824

>  <SCORE.INTRA.REPUL>
0

>  <SCORE.INTRA.REPUL.0>
0

>  <SCORE.INTRA.VDW>
-3.40789

>  <SCORE.INTRA.VDW.0>
2.37064

>  <SCORE.INTRA.norm>
0.0474946

>  <SCORE.RESTR>
0

>  <SCORE.RESTR.CAVITY>
0

>  <SCORE.RESTR.norm>
0

>  <SCORE.SYSTEM>
0

>  <SCORE.SYSTEM.CONST>
0

>  <SCORE.SYSTEM.DIHEDRAL>
0

>  <SCORE.SYSTEM.norm>
0

>  <SCORE.heavy>
24

>  <SCORE.norm>
-0.999911

$$$$
design_8
 OpenBabel05252019093D

 25 27  0  0  0  0  0  0  0  0999 V2000
   39.4973  -41.6723    7.1811 C   0  0  0  0  0  0  0  0  0  0  0  0
   38.2668  -41.9283    6.5972 O   0  0  0  0  0  0  0  0  0  0  0  0
   37.6658  -43.1347    6.3934 C   0  0  0  0  0  0  0  0  0  0  0  0
   38.2609  -44.3170    6.7397 C   0  0  0  0  0  0  0  0  0  0  0  0
   37.6557  -45.5384    6.5373 C   0  0  0  0  0  0  0  0  0  0  0  0
   38.2691  -46.8324    7.0551 C   0  0  0  0  0  0  0  0  0  0  0  0
   38.1648  -46.6568    8.6013 C   0  0  0  0  0  0  0  0  0  0  0  0
   37.1017  -47.0446    9.1069 O   0  0  0  0  0  0  0  0  0  0  0  0
   39.2502  -46.0746    9.2486 N   0  0  0  0  0  0  0  0  0  0  0  0
   40.2981  -45.5108    9.8845 C   0  0  0  0  0  0  0  0  0  0  0  0
   41.5396  -45.3729    9.0365 C   0  0  0  0  0  0  0  0  0  0  0  0
   41.6961  -46.0578    7.8523 C   0  0  0  0  0  0  0  0  0  0  0  0
   42.8487  -45.9050    7.0794 C   0  0  0  0  0  0  0  0  0  0  0  0
   43.8621  -45.0472    7.5162 C   0  0  0  0  0  0  0  0  0  0  0  0
   45.0351  -44.8929    6.7286 N   0  0  0  0  0  0  0  0  0  0  0  0
   45.2396  -45.5025    5.5445 C   0  0  0  0  0  0  0  0  0  0  0  0
   46.4490  -45.1417    5.0642 N   0  0  0  0  0  0  0  0  0  0  0  0
   47.0134  -44.3054    5.9371 C   0  0  0  0  0  0  0  0  0  0  0  0
   46.1183  -44.1610    6.9636 N   0  0  0  0  0  0  0  0  0  0  0  0
   43.6600  -44.3921    8.6976 C   0  0  0  0  0  0  0  0  0  0  0  0
   42.5212  -44.5255    9.4840 C   0  0  0  0  0  0  0  0  0  0  0  0
   36.4158  -45.6173    5.9678 C   0  0  0  0  0  0  0  0  0  0  0  0
   35.7748  -44.4490    5.6011 C   0  0  0  0  0  0  0  0  0  0  0  0
   36.4146  -43.2244    5.8219 C   0  0  0  0  0  0  0  0  0  0  0  0
   35.6684  -41.9806    5.4742 C   0  0  0  0  0  0  0  0  0  0  0  0
  1  2  1  0  0  0  0
  2  3  1  0  0  0  0
  3  4  2  0  0  0  0
  4  5  1  0  0  0  0
  5  6  1  0  0  0  0
  5 22  2  0  0  0  0
  6  7  1  0  0  0  0
  7  8  2  0  0  0  0
  7  9  1  0  0  0  0
  9 10  1  0  0  0  0
 10 11  1  0  0  0  0
 11 12  2  0  0  0  0
 12 13  1  0  0  0  0
 13 14  2  0  0  0  0
 14 15  1  0  0  0  0
 14 20  1  0  0  0  0
 15 16  1  0  0  0  0
 16 17  2  0  0  0  0
 17 18  1  0  0  0  0
 18 19  2  0  0  0  0
 19 15  1  0  0  0  0
 20 21  2  0  0  0  0
 21 11  1  0  0  0  0
 22 23  1  0  0  0  0
 23 24  2  0  0  0  0
 24 25  1  0  0  0  0
 24  3  1  0  0  0  0
M  END
>  <CHROM.1>
-1.52066663,66.67260006,87.89507206,169.17410028,-15.53858312,1.65392340
40.55359501,-44.74638854,7.21846458,-3.09366050,-0.04187195,2.42226646

>  <Name>
design_8

>  <RI>
0

>  <Rbt.Current_Directory>
/home/ziqiaoxu/icml18-jtnn/VAEdesign

>  <Rbt.Executable>
rbdock ($Id: //depot/dev/client3/rdock/2013.1/src/exe/rbdock.cxx#4 $)

>  <Rbt.Library>
libRbt.so (2013.1, Build901 2013/11/27)

>  <Rbt.Parameter_File>
/export/apps/rDock/src/rDock_2013.1_src//data/scripts/dock.prm

>  <Rbt.Receptor>
/home/ziqiaoxu/icml18-jtnn/VAEdesign/targets/RdRp-SARS-CoV-2/pocket_docking.prm

>  <SCORE>
-22.414

>  <SCORE.INTER>
-18.4368

>  <SCORE.INTER.CONST>
1

>  <SCORE.INTER.POLAR>
-0.832488

>  <SCORE.INTER.REPUL>
0.0160736

>  <SCORE.INTER.ROT>
6

>  <SCORE.INTER.VDW>
-27.0867

>  <SCORE.INTER.norm>
-0.73747

>  <SCORE.INTRA>
-3.97728

>  <SCORE.INTRA.DIHEDRAL>
-7.93017

>  <SCORE.INTRA.DIHEDRAL.0>
11.0149

>  <SCORE.INTRA.POLAR>
0

>  <SCORE.INTRA.POLAR.0>
0

>  <SCORE.INTRA.REPUL>
0

>  <SCORE.INTRA.REPUL.0>
0

>  <SCORE.INTRA.VDW>
-0.012197

>  <SCORE.INTRA.VDW.0>
-0.946073

>  <SCORE.INTRA.norm>
-0.159091

>  <SCORE.RESTR>
0

>  <SCORE.RESTR.CAVITY>
0

>  <SCORE.RESTR.norm>
0

>  <SCORE.SYSTEM>
0

>  <SCORE.SYSTEM.CONST>
0

>  <SCORE.SYSTEM.DIHEDRAL>
0

>  <SCORE.SYSTEM.norm>
0

>  <SCORE.heavy>
25

>  <SCORE.norm>
-0.896562

$$$$
design_1
 OpenBabel05252019093D

 23 25  0  0  0  0  0  0  0  0999 V2000
   45.1523  -43.8396    4.6771 O   0  0  0  0  0  0  0  0  0  0  0  0
   45.4880  -44.8987    5.2900 C   0  0  0  0  0  0  0  0  0  0  0  0
   44.9824  -45.2290    6.5622 N   0  0  0  0  0  0  0  0  0  0  0  0
   44.0414  -44.4415    7.3280 C   0  0  0  0  0  0  0  0  0  0  0  0
   42.9107  -45.3399    7.7603 C   0  0  0  0  0  0  0  0  0  0  0  0
   42.1140  -45.9956    6.2457 S   0  0  0  0  0  0  0  0  0  0  0  0
   40.7482  -47.0125    6.8020 C   0  0  0  0  0  0  0  0  0  0  0  0
   40.1876  -47.9534    5.9369 C   0  0  0  0  0  0  0  0  0  0  0  0
   39.1345  -48.7462    6.3402 C   0  0  0  0  0  0  0  0  0  0  0  0
   38.6158  -48.6227    7.6079 C   0  0  0  0  0  0  0  0  0  0  0  0
   39.1649  -47.6852    8.4866 C   0  0  0  0  0  0  0  0  0  0  0  0
   40.2221  -46.8970    8.0677 C   0  0  0  0  0  0  0  0  0  0  0  0
   46.3998  -45.7556    4.6555 N   0  0  0  0  0  0  0  0  0  0  0  0
   46.9182  -45.4224    3.3600 C   0  0  0  0  0  0  0  0  0  0  0  0
   46.6954  -46.4925    2.3228 C   0  0  0  0  0  0  0  0  0  0  0  0
   45.5122  -46.2962    1.4392 C   0  0  0  0  0  0  0  0  0  0  0  0
   45.6834  -46.4854    0.0694 C   0  0  0  0  0  0  0  0  0  0  0  0
   44.5996  -46.3084   -0.7659 C   0  0  0  0  0  0  0  0  0  0  0  0
   43.3446  -45.9473   -0.2796 C   0  0  0  0  0  0  0  0  0  0  0  0
   43.1872  -45.7632    1.0695 C   0  0  0  0  0  0  0  0  0  0  0  0
   44.2678  -45.9382    1.9151 C   0  0  0  0  0  0  0  0  0  0  0  0
   47.2125  -47.8644    2.4647 C   0  0  0  0  0  0  0  0  0  0  0  0
   48.0025  -46.8942    1.6090 C   0  0  0  0  0  0  0  0  0  0  0  0
  1  2  2  0  0  0  0
  2  3  1  0  0  0  0
  2 13  1  0  0  0  0
  3  4  1  0  0  0  0
  4  5  1  0  0  0  0
  5  6  1  0  0  0  0
  6  7  1  0  0  0  0
  7  8  2  0  0  0  0
  8  9  1  0  0  0  0
  9 10  2  0  0  0  0
 10 11  1  0  0  0  0
 11 12  2  0  0  0  0
 12  7  1  0  0  0  0
 13 14  1  0  0  0  0
 14 15  1  0  0  0  0
 15 16  1  0  0  0  0
 15 22  1  0  0  0  0
 16 17  2  0  0  0  0
 17 18  1  0  0  0  0
 18 19  2  0  0  0  0
 19 20  1  0  0  0  0
 20 21  2  0  0  0  0
 21 16  1  0  0  0  0
 22 23  1  0  0  0  0
 23 15  1  0  0  0  0
M  END
>  <CHROM.1>
128.92651701,-60.54218325,-178.23240685,-161.35100255,-124.35652910,97.30960249
133.91520934,43.64796707,-46.28922795,4.44559475,-0.73156012,0.38830609,1.34125883

>  <Name>
design_1

>  <RI>
0

>  <Rbt.Current_Directory>
/home/ziqiaoxu/icml18-jtnn/VAEdesign

>  <Rbt.Executable>
rbdock ($Id: //depot/dev/client3/rdock/2013.1/src/exe/rbdock.cxx#4 $)

>  <Rbt.Library>
libRbt.so (2013.1, Build901 2013/11/27)

>  <Rbt.Parameter_File>
/export/apps/rDock/src/rDock_2013.1_src//data/scripts/dock.prm

>  <Rbt.Receptor>
/home/ziqiaoxu/icml18-jtnn/VAEdesign/targets/RdRp-SARS-CoV-2/pocket_docking.prm

>  <SCORE>
-18.9577

>  <SCORE.INTER>
-19.523

>  <SCORE.INTER.CONST>
1

>  <SCORE.INTER.POLAR>
-1.42261

>  <SCORE.INTER.REPUL>
0

>  <SCORE.INTER.ROT>
7

>  <SCORE.INTER.VDW>
-27.0861

>  <SCORE.INTER.norm>
-0.848825

>  <SCORE.INTRA>
0.565321

>  <SCORE.INTRA.DIHEDRAL>
1.33444

>  <SCORE.INTRA.DIHEDRAL.0>
6.56175

>  <SCORE.INTRA.POLAR>
0

>  <SCORE.INTRA.POLAR.0>
0

>  <SCORE.INTRA.REPUL>
0

>  <SCORE.INTRA.REPUL.0>
0

>  <SCORE.INTRA.VDW>
-0.101902

>  <SCORE.INTRA.VDW.0>
-0.281982

>  <SCORE.INTRA.norm>
0.0245792

>  <SCORE.RESTR>
0

>  <SCORE.RESTR.CAVITY>
0

>  <SCORE.RESTR.norm>
0

>  <SCORE.SYSTEM>
0

>  <SCORE.SYSTEM.CONST>
0

>  <SCORE.SYSTEM.DIHEDRAL>
0

>  <SCORE.SYSTEM.norm>
0

>  <SCORE.heavy>
23

>  <SCORE.norm>
-0.824246

$$$$
design_12
 OpenBabel05252019093D

 25 27  0  0  0  0  0  0  0  0999 V2000
   47.8030  -48.7494   -0.0233 N   0  0  0  0  0  0  0  0  0  0  0  0
   48.2377  -48.0948    1.1913 C   0  0  0  0  0  0  0  0  0  0  0  0
   49.4529  -47.9824    1.3874 O   0  0  0  0  0  0  0  0  0  0  0  0
   47.2678  -47.6256    2.0761 N   0  0  0  0  0  0  0  0  0  0  0  0
   47.4694  -46.9824    3.3276 C   0  0  0  0  0  0  0  0  0  0  0  0
   46.6541  -45.8450    3.7280 C   0  0  0  0  0  0  0  0  0  0  0  0
   46.8294  -45.0620    4.9092 C   0  0  0  0  0  0  0  0  0  0  0  0
   47.9559  -44.3196    5.2304 C   0  0  0  0  0  0  0  0  0  0  0  0
   48.0136  -43.5467    6.3639 C   0  0  0  0  0  0  0  0  0  0  0  0
   46.9655  -43.4593    7.2470 C   0  0  0  0  0  0  0  0  0  0  0  0
   45.8328  -44.1822    6.9591 C   0  0  0  0  0  0  0  0  0  0  0  0
   44.7217  -44.0810    7.9068 C   0  0  0  0  0  0  0  0  0  0  0  0
   44.7647  -43.1036    8.7221 O   0  0  0  0  0  0  0  0  0  0  0  0
   43.6416  -44.9900    7.9519 N   0  0  0  0  0  0  0  0  0  0  0  0
   42.5921  -44.8091    8.9174 C   0  0  0  0  0  0  0  0  0  0  0  0
   41.4421  -45.7105    8.6803 C   0  0  0  0  0  0  0  0  0  0  0  0
   40.3437  -45.7187    9.5013 C   0  0  0  0  0  0  0  0  0  0  0  0
   39.2702  -46.5792    9.2656 C   0  0  0  0  0  0  0  0  0  0  0  0
   39.2792  -47.4482    8.2002 C   0  0  0  0  0  0  0  0  0  0  0  0
   40.3833  -47.4440    7.3698 C   0  0  0  0  0  0  0  0  0  0  0  0
   41.4427  -46.5842    7.6155 C   0  0  0  0  0  0  0  0  0  0  0  0
   40.1222  -48.4072    6.3944 O   0  0  0  0  0  0  0  0  0  0  0  0
   39.0093  -49.1920    6.7683 C   0  0  0  0  0  0  0  0  0  0  0  0
   38.3810  -48.3967    7.7247 O   0  0  0  0  0  0  0  0  0  0  0  0
   45.7762  -44.9519    5.8301 C   0  0  0  0  0  0  0  0  0  0  0  0
  1  2  1  0  0  0  0
  2  3  2  0  0  0  0
  2  4  1  0  0  0  0
  4  5  1  0  0  0  0
  5  6  1  0  0  0  0
  6  7  1  0  0  0  0
  7  8  2  0  0  0  0
  8  9  1  0  0  0  0
  9 10  2  0  0  0  0
 10 11  1  0  0  0  0
 11 12  1  0  0  0  0
 11 25  2  0  0  0  0
 12 13  2  0  0  0  0
 12 14  1  0  0  0  0
 14 15  1  0  0  0  0
 15 16  1  0  0  0  0
 16 17  2  0  0  0  0
 17 18  1  0  0  0  0
 18 19  2  0  0  0  0
 19 20  1  0  0  0  0
 20 21  2  0  0  0  0
 20 22  1  0  0  0  0
 21 16  1  0  0  0  0
 22 23  1  0  0  0  0
 23 24  1  0  0  0  0
 24 19  1  0  0  0  0
 25  7  1  0  0  0  0
M  END
>  <CHROM.1>
139.01036966,-175.06391327,61.18499567,16.60430261,170.58089790,178.75034780
44.16013057,-46.19860750,6.04268533,0.42417806,-0.45482825,-2.31107856

>  <Name>
design_12

>  <RI>
0

>  <Rbt.Current_Directory>
/home/ziqiaoxu/icml18-jtnn/VAEdesign

>  <Rbt.Executable>
rbdock ($Id: //depot/dev/client3/rdock/2013.1/src/exe/rbdock.cxx#4 $)

>  <Rbt.Library>
libRbt.so (2013.1, Build901 2013/11/27)

>  <Rbt.Parameter_File>
/export/apps/rDock/src/rDock_2013.1_src//data/scripts/dock.prm

>  <Rbt.Receptor>
/home/ziqiaoxu/icml18-jtnn/VAEdesign/targets/RdRp-SARS-CoV-2/pocket_docking.prm

>  <SCORE>
-25.2186

>  <SCORE.INTER>
-22.553

>  <SCORE.INTER.CONST>
1

>  <SCORE.INTER.POLAR>
-2.05268

>  <SCORE.INTER.REPUL>
0.0219487

>  <SCORE.INTER.ROT>
6

>  <SCORE.INTER.VDW>
-27.0837

>  <SCORE.INTER.norm>
-0.902121

>  <SCORE.INTRA>
-2.66757

>  <SCORE.INTRA.DIHEDRAL>
-11.5032

>  <SCORE.INTRA.DIHEDRAL.0>
16.4758

>  <SCORE.INTRA.POLAR>
0

>  <SCORE.INTRA.POLAR.0>
0

>  <SCORE.INTRA.REPUL>
0

>  <SCORE.INTRA.REPUL.0>
0

>  <SCORE.INTRA.VDW>
3.08403

>  <SCORE.INTRA.VDW.0>
-2.96354

>  <SCORE.INTRA.norm>
-0.106703

>  <SCORE.RESTR>
0.00198963

>  <SCORE.RESTR.CAVITY>
0.00198963

>  <SCORE.RESTR.norm>
7.95853e-05

>  <SCORE.SYSTEM>
0

>  <SCORE.SYSTEM.CONST>
0

>  <SCORE.SYSTEM.DIHEDRAL>
0

>  <SCORE.SYSTEM.norm>
0

>  <SCORE.heavy>
25

>  <SCORE.norm>
-1.00874

$$$$
design_7
 OpenBabel05252019093D

 24 26  0  0  0  0  0  0  0  0999 V2000
   39.0937  -48.4743    7.2581 C   0  0  0  0  0  0  0  0  0  0  0  0
   39.7577  -47.3627    8.0495 C   0  0  0  0  0  0  0  0  0  0  0  0
   40.9145  -46.7782    7.8148 N   0  0  0  0  0  0  0  0  0  0  0  0
   41.3384  -45.8332    8.6016 C   0  0  0  0  0  0  0  0  0  0  0  0
   42.6433  -45.1384    8.3759 C   0  0  0  0  0  0  0  0  0  0  0  0
   43.0716  -44.1198    9.1894 C   0  0  0  0  0  0  0  0  0  0  0  0
   44.2817  -43.4816    8.9783 C   0  0  0  0  0  0  0  0  0  0  0  0
   45.1010  -43.8747    7.9110 C   0  0  0  0  0  0  0  0  0  0  0  0
   44.7022  -44.8823    7.0875 C   0  0  0  0  0  0  0  0  0  0  0  0
   45.4650  -45.3907    5.9876 N   0  0  0  0  0  0  0  0  0  0  0  0
   45.9828  -44.6013    4.9737 C   0  0  0  0  0  0  0  0  0  0  0  0
   45.8567  -43.3795    4.9110 O   0  0  0  0  0  0  0  0  0  0  0  0
   46.7639  -45.2642    3.8534 C   0  0  0  0  0  0  0  0  0  0  0  0
   46.1378  -45.5560    2.7756 O   0  0  0  0  0  0  0  0  0  0  0  0
   45.5036  -45.8517    1.6837 C   0  0  0  0  0  0  0  0  0  0  0  0
   44.1257  -45.6432    1.5741 C   0  0  0  0  0  0  0  0  0  0  0  0
   43.4101  -45.9373    0.4431 C   0  0  0  0  0  0  0  0  0  0  0  0
   44.0699  -46.4691   -0.6571 C   0  0  0  0  0  0  0  0  0  0  0  0
   45.4231  -46.6936   -0.6012 C   0  0  0  0  0  0  0  0  0  0  0  0
   46.1200  -46.3903    0.5451 C   0  0  0  0  0  0  0  0  0  0  0  0
   47.4526  -46.6097    0.6071 F   0  0  0  0  0  0  0  0  0  0  0  0
   43.4664  -45.5001    7.3399 C   0  0  0  0  0  0  0  0  0  0  0  0
   40.5309  -45.4926    9.6587 C   0  0  0  0  0  0  0  0  0  0  0  0
   39.2089  -46.5594    9.4510 S   0  0  0  0  0  0  0  0  0  0  0  0
  1  2  1  0  0  0  0
  2  3  2  0  0  0  0
  3  4  1  0  0  0  0
  4  5  1  0  0  0  0
  4 23  2  0  0  0  0
  5  6  2  0  0  0  0
  6  7  1  0  0  0  0
  7  8  2  0  0  0  0
  8  9  1  0  0  0  0
  9 10  1  0  0  0  0
  9 22  2  0  0  0  0
 10 11  1  0  0  0  0
 11 12  2  0  0  0  0
 11 13  1  0  0  0  0
 13 14  1  0  0  0  0
 14 15  1  0  0  0  0
 15 16  2  0  0  0  0
 16 17  1  0  0  0  0
 17 18  2  0  0  0  0
 18 19  1  0  0  0  0
 19 20  2  0  0  0  0
 20 21  1  0  0  0  0
 20 15  1  0  0  0  0
 22  5  1  0  0  0  0
 23 24  1  0  0  0  0
 24  2  1  0  0  0  0
M  END
>  <CHROM.1>
178.38396370,-53.15066628,95.68136098,178.81830207,177.23418197,43.60166561
-45.70356576,5.38265811,2.23087296,0.47759209,1.24181944

>  <Name>
design_7

>  <RI>
0

>  <Rbt.Current_Directory>
/home/ziqiaoxu/icml18-jtnn/VAEdesign

>  <Rbt.Executable>
rbdock ($Id: //depot/dev/client3/rdock/2013.1/src/exe/rbdock.cxx#4 $)

>  <Rbt.Library>
libRbt.so (2013.1, Build901 2013/11/27)

>  <Rbt.Parameter_File>
/export/apps/rDock/src/rDock_2013.1_src//data/scripts/dock.prm

>  <Rbt.Receptor>
/home/ziqiaoxu/icml18-jtnn/VAEdesign/targets/RdRp-SARS-CoV-2/pocket_docking.prm

>  <SCORE>
-18.5215

>  <SCORE.INTER>
-19.1808

>  <SCORE.INTER.CONST>
1

>  <SCORE.INTER.POLAR>
-0.735931

>  <SCORE.INTER.REPUL>
0

>  <SCORE.INTER.ROT>
5

>  <SCORE.INTER.VDW>
-27.0786

>  <SCORE.INTER.norm>
-0.799198

>  <SCORE.INTRA>
0.659286

>  <SCORE.INTRA.DIHEDRAL>
1.78688

>  <SCORE.INTRA.DIHEDRAL.0>
7.62691

>  <SCORE.INTRA.POLAR>
0

>  <SCORE.INTRA.POLAR.0>
0

>  <SCORE.INTRA.REPUL>
0

>  <SCORE.INTRA.REPUL.0>
0

>  <SCORE.INTRA.VDW>
-0.234153

>  <SCORE.INTRA.VDW.0>
-1.32066

>  <SCORE.INTRA.norm>
0.0274702

>  <SCORE.RESTR>
0

>  <SCORE.RESTR.CAVITY>
0

>  <SCORE.RESTR.norm>
0

>  <SCORE.SYSTEM>
0

>  <SCORE.SYSTEM.CONST>
0

>  <SCORE.SYSTEM.DIHEDRAL>
0

>  <SCORE.SYSTEM.norm>
0

>  <SCORE.heavy>
24

>  <SCORE.norm>
-0.771728

$$$$
design_13
 OpenBabel05252019093D

 25 27  0  0  0  0  0  0  0  0999 V2000
   40.3513  -40.0605    6.3956 O   0  0  0  0  0  0  0  0  0  0  0  0
   40.1526  -39.0740    7.1585 C   0  0  0  0  0  0  0  0  0  0  0  0
   40.0315  -39.3410    8.5574 N   0  0  0  0  0  0  0  0  0  0  0  0
   40.1838  -40.7302    8.9365 C   0  0  0  0  0  0  0  0  0  0  0  0
   38.9291  -41.4073    9.2572 C   0  0  0  0  0  0  0  0  0  0  0  0
   38.9790  -42.0155   10.6891 C   0  0  0  0  0  0  0  0  0  0  0  0
   39.5560  -43.2458   10.5951 N   0  0  0  0  0  0  0  0  0  0  0  0
   40.1331  -44.4762   10.5011 C   0  0  0  0  0  0  0  0  0  0  0  0
   41.0802  -44.9958   11.2095 O   0  0  0  0  0  0  0  0  0  0  0  0
   39.6580  -45.4436    9.4637 C   0  0  0  0  0  0  0  0  0  0  0  0
   39.0184  -45.0512    8.2969 C   0  0  0  0  0  0  0  0  0  0  0  0
   38.7162  -46.2005    7.6051 C   0  0  0  0  0  0  0  0  0  0  0  0
   38.1052  -46.4383    6.3735 C   0  0  0  0  0  0  0  0  0  0  0  0
   37.9375  -47.6939    5.8834 C   0  0  0  0  0  0  0  0  0  0  0  0
   38.3896  -48.7823    6.6377 C   0  0  0  0  0  0  0  0  0  0  0  0
   39.0002  -48.5400    7.8679 C   0  0  0  0  0  0  0  0  0  0  0  0
   39.1703  -47.2743    8.3558 C   0  0  0  0  0  0  0  0  0  0  0  0
   39.7358  -46.7666    9.4766 N   0  0  0  0  0  0  0  0  0  0  0  0
   40.0666  -37.7758    6.6064 N   0  0  0  0  0  0  0  0  0  0  0  0
   40.2064  -37.7334    5.1732 C   0  0  0  0  0  0  0  0  0  0  0  0
   40.9777  -38.6183    4.4624 C   0  0  0  0  0  0  0  0  0  0  0  0
   41.0762  -38.5259    3.0792 C   0  0  0  0  0  0  0  0  0  0  0  0
   40.4089  -37.5494    2.3792 C   0  0  0  0  0  0  0  0  0  0  0  0
   39.6362  -36.6627    3.1005 C   0  0  0  0  0  0  0  0  0  0  0  0
   39.5357  -36.7536    4.4893 C   0  0  0  0  0  0  0  0  0  0  0  0
  1  2  2  0  0  0  0
  2  3  1  0  0  0  0
  2 19  1  0  0  0  0
  3  4  1  0  0  0  0
  4  5  1  0  0  0  0
  5  6  1  0  0  0  0
  6  7  1  0  0  0  0
  7  8  1  0  0  0  0
  8  9  2  0  0  0  0
  8 10  1  0  0  0  0
 10 11  2  0  0  0  0
 11 12  1  0  0  0  0
 12 13  2  0  0  0  0
 13 14  1  0  0  0  0
 14 15  2  0  0  0  0
 15 16  1  0  0  0  0
 16 17  2  0  0  0  0
 17 18  1  0  0  0  0
 17 12  1  0  0  0  0
 18 10  1  0  0  0  0
 19 20  1  0  0  0  0
 20 21  2  0  0  0  0
 21 22  1  0  0  0  0
 22 23  2  0  0  0  0
 23 24  1  0  0  0  0
 24 25  2  0  0  0  0
 25 20  1  0  0  0  0
M  END
>  <CHROM.1>
-103.93138038,-123.71046291,-85.62070309,145.99571099,23.76547095,-31.39190694
39.66512738,-42.40189463,7.38112626,-0.95191931,1.37993503,2.12577086

>  <Name>
design_13

>  <RI>
0

>  <Rbt.Current_Directory>
/home/ziqiaoxu/icml18-jtnn/VAEdesign

>  <Rbt.Executable>
rbdock ($Id: //depot/dev/client3/rdock/2013.1/src/exe/rbdock.cxx#4 $)

>  <Rbt.Library>
libRbt.so (2013.1, Build901 2013/11/27)

>  <Rbt.Parameter_File>
/export/apps/rDock/src/rDock_2013.1_src//data/scripts/dock.prm

>  <Rbt.Receptor>
/home/ziqiaoxu/icml18-jtnn/VAEdesign/targets/RdRp-SARS-CoV-2/pocket_docking.prm

>  <SCORE>
-23.0563

>  <SCORE.INTER>
-23.448

>  <SCORE.INTER.CONST>
1

>  <SCORE.INTER.POLAR>
-2.28888

>  <SCORE.INTER.REPUL>
0

>  <SCORE.INTER.ROT>
6

>  <SCORE.INTER.VDW>
-27.0659

>  <SCORE.INTER.norm>
-0.937922

>  <SCORE.INTRA>
0.369685

>  <SCORE.INTRA.DIHEDRAL>
-2.10639

>  <SCORE.INTRA.DIHEDRAL.0>
18.0519

>  <SCORE.INTRA.POLAR>
0

>  <SCORE.INTRA.POLAR.0>
0

>  <SCORE.INTRA.REPUL>
0

>  <SCORE.INTRA.REPUL.0>
0

>  <SCORE.INTRA.VDW>
1.42288

>  <SCORE.INTRA.VDW.0>
-0.926331

>  <SCORE.INTRA.norm>
0.0147874

>  <SCORE.RESTR>
0.0220895

>  <SCORE.RESTR.CAVITY>
0.0220895

>  <SCORE.RESTR.norm>
0.00088358

>  <SCORE.SYSTEM>
0

>  <SCORE.SYSTEM.CONST>
0

>  <SCORE.SYSTEM.DIHEDRAL>
0

>  <SCORE.SYSTEM.norm>
0

>  <SCORE.heavy>
25

>  <SCORE.norm>
-0.922251

$$$$
design_10
 OpenBabel05252019093D

 25 26  0  0  0  0  0  0  0  0999 V2000
   45.2080  -44.7166    3.4002 C   0  0  0  0  0  0  0  0  0  0  0  0
   45.3944  -45.4378    4.7159 C   0  0  0  0  0  0  0  0  0  0  0  0
   46.4886  -46.0780    4.7479 O   0  0  0  0  0  0  0  0  0  0  0  0
   44.4853  -45.3925    5.7311 N   0  0  0  0  0  0  0  0  0  0  0  0
   43.5789  -45.3480    6.7452 C   0  0  0  0  0  0  0  0  0  0  0  0
   43.9474  -44.8131    8.0881 C   0  0  0  0  0  0  0  0  0  0  0  0
   45.2044  -44.3991    8.4380 C   0  0  0  0  0  0  0  0  0  0  0  0
   45.4092  -43.8812    9.7119 C   0  0  0  0  0  0  0  0  0  0  0  0
   44.3711  -43.7912   10.5997 C   0  0  0  0  0  0  0  0  0  0  0  0
   43.0863  -44.2201   10.2318 C   0  0  0  0  0  0  0  0  0  0  0  0
   42.8476  -44.7440    8.9614 C   0  0  0  0  0  0  0  0  0  0  0  0
   41.5850  -45.3071    8.6435 N   0  0  0  0  0  0  0  0  0  0  0  0
   40.5480  -45.5933    9.6421 C   0  0  0  0  0  0  0  0  0  0  0  0
   40.8405  -45.1547   10.7702 O   0  0  0  0  0  0  0  0  0  0  0  0
   39.4178  -46.2665    9.3253 N   0  0  0  0  0  0  0  0  0  0  0  0
   38.2669  -46.9519    9.0027 C   0  0  0  0  0  0  0  0  0  0  0  0
   38.0138  -47.0888    7.5038 C   0  0  2  0  0  0  0  0  0  0  0  0
   39.0740  -47.8657    6.7805 C   0  0  0  0  0  0  0  0  0  0  0  0
   37.5689  -45.9027    6.8190 C   0  0  0  0  0  0  0  0  0  0  0  0
   36.3417  -45.9556    6.1283 C   0  0  0  0  0  0  0  0  0  0  0  0
   35.8536  -44.8388    5.4837 C   0  0  0  0  0  0  0  0  0  0  0  0
   36.5602  -43.6504    5.5105 C   0  0  0  0  0  0  0  0  0  0  0  0
   37.7666  -43.5825    6.1824 C   0  0  0  0  0  0  0  0  0  0  0  0
   38.4403  -42.4248    6.1665 F   0  0  0  0  0  0  0  0  0  0  0  0
   38.2586  -44.7301    6.8358 C   0  0  0  0  0  0  0  0  0  0  0  0
  1  2  1  0  0  0  0
  2  3  2  0  0  0  0
  2  4  1  0  0  0  0
  4  5  1  0  0  0  0
  5  6  1  0  0  0  0
  6  7  2  0  0  0  0
  7  8  1  0  0  0  0
  8  9  2  0  0  0  0
  9 10  1  0  0  0  0
 10 11  2  0  0  0  0
 11 12  1  0  0  0  0
 11  6  1  0  0  0  0
 12 13  1  0  0  0  0
 13 14  2  0  0  0  0
 13 15  1  0  0  0  0
 15 16  1  0  0  0  0
 16 17  1  0  0  0  0
 17 18  1  6  0  0  0
 17 19  1  0  0  0  0
 19 20  2  0  0  0  0
 20 21  1  0  0  0  0
 21 22  2  0  0  0  0
 22 23  1  0  0  0  0
 23 24  1  0  0  0  0
 23 25  2  0  0  0  0
 25 19  1  0  0  0  0
M  END
>  <CHROM.1>
58.71991664,-3.62113214,162.03666820,171.88883672,62.40710727,-122.08533665
41.15790536,-45.12060204,7.41633171,-0.03565469,-0.04311501,-1.56471574

>  <Name>
design_10

>  <RI>
0

>  <Rbt.Current_Directory>
/home/ziqiaoxu/icml18-jtnn/VAEdesign

>  <Rbt.Executable>
rbdock ($Id: //depot/dev/client3/rdock/2013.1/src/exe/rbdock.cxx#4 $)

>  <Rbt.Library>
libRbt.so (2013.1, Build901 2013/11/27)

>  <Rbt.Parameter_File>
/export/apps/rDock/src/rDock_2013.1_src//data/scripts/dock.prm

>  <Rbt.Receptor>
/home/ziqiaoxu/icml18-jtnn/VAEdesign/targets/RdRp-SARS-CoV-2/pocket_docking.prm

>  <SCORE>
-21.9449

>  <SCORE.INTER>
-22.1689

>  <SCORE.INTER.CONST>
1

>  <SCORE.INTER.POLAR>
-1.91423

>  <SCORE.INTER.REPUL>
0

>  <SCORE.INTER.ROT>
6

>  <SCORE.INTER.VDW>
-27.0606

>  <SCORE.INTER.norm>
-0.886758

>  <SCORE.INTRA>
0.223996

>  <SCORE.INTRA.DIHEDRAL>
-2.17322

>  <SCORE.INTRA.DIHEDRAL.0>
5.34925

>  <SCORE.INTRA.POLAR>
0

>  <SCORE.INTRA.POLAR.0>
0

>  <SCORE.INTRA.REPUL>
0

>  <SCORE.INTRA.REPUL.0>
0

>  <SCORE.INTRA.VDW>
1.3106

>  <SCORE.INTRA.VDW.0>
-0.641816

>  <SCORE.INTRA.norm>
0.00895983

>  <SCORE.RESTR>
0

>  <SCORE.RESTR.CAVITY>
0

>  <SCORE.RESTR.norm>
0

>  <SCORE.SYSTEM>
0

>  <SCORE.SYSTEM.CONST>
0

>  <SCORE.SYSTEM.DIHEDRAL>
0

>  <SCORE.SYSTEM.norm>
0

>  <SCORE.heavy>
25

>  <SCORE.norm>
-0.877798

$$$$
design_15
 OpenBabel05252019093D

 26 28  0  0  0  0  0  0  0  0999 V2000
   40.2827  -36.4787    2.2392 C   0  0  0  0  0  0  0  0  0  0  0  0
   39.2903  -37.1639    2.9828 O   0  0  0  0  0  0  0  0  0  0  0  0
   39.6486  -37.7007    4.2094 C   0  0  0  0  0  0  0  0  0  0  0  0
   40.0167  -39.0296    4.3109 C   0  0  0  0  0  0  0  0  0  0  0  0
   40.3767  -39.5753    5.5339 C   0  0  0  0  0  0  0  0  0  0  0  0
   40.3759  -38.8154    6.6634 C   0  0  0  0  0  0  0  0  0  0  0  0
   40.7540  -39.3684    7.9860 C   0  0  0  0  0  0  0  0  0  0  0  0
   40.6617  -40.8007    8.0428 N   0  0  0  0  0  0  0  0  0  0  0  0
   39.4860  -41.4963    8.4058 C   0  0  0  0  0  0  0  0  0  0  0  0
   38.4525  -40.8591    8.6982 O   0  0  0  0  0  0  0  0  0  0  0  0
   39.4643  -42.9689    8.4441 C   0  0  0  0  0  0  0  0  0  0  0  0
   40.4032  -43.4834    9.5040 C   0  0  0  0  0  0  0  0  0  0  0  0
   40.4517  -44.9673    9.4939 C   0  0  0  0  0  0  0  0  0  0  0  0
   40.3871  -45.5618   10.5994 O   0  0  0  0  0  0  0  0  0  0  0  0
   40.5703  -45.7171    8.2421 C   0  0  0  0  0  0  0  0  0  0  0  0
   41.3354  -45.3296    7.1507 C   0  0  0  0  0  0  0  0  0  0  0  0
   41.2133  -46.2535    6.1681 N   0  0  0  0  0  0  0  0  0  0  0  0
   41.8731  -46.1762    4.8791 C   0  0  0  0  0  0  0  0  0  0  0  0
   40.3929  -47.2354    6.5784 C   0  0  0  0  0  0  0  0  0  0  0  0
   39.9526  -48.3850    5.9623 C   0  0  0  0  0  0  0  0  0  0  0  0
   39.0972  -49.2057    6.6622 C   0  0  0  0  0  0  0  0  0  0  0  0
   38.6784  -48.9103    7.9409 C   0  0  0  0  0  0  0  0  0  0  0  0
   39.1328  -47.7569    8.5323 C   0  0  0  0  0  0  0  0  0  0  0  0
   39.9849  -46.9078    7.8773 C   0  0  0  0  0  0  0  0  0  0  0  0
   40.0121  -37.4826    6.5918 C   0  0  0  0  0  0  0  0  0  0  0  0
   39.6584  -36.9607    5.3674 C   0  0  0  0  0  0  0  0  0  0  0  0
  1  2  1  0  0  0  0
  2  3  1  0  0  0  0
  3  4  2  0  0  0  0
  4  5  1  0  0  0  0
  5  6  2  0  0  0  0
  6  7  1  0  0  0  0
  6 25  1  0  0  0  0
  7  8  1  0  0  0  0
  8  9  1  0  0  0  0
  9 10  2  0  0  0  0
  9 11  1  0  0  0  0
 11 12  1  0  0  0  0
 12 13  1  0  0  0  0
 13 14  2  0  0  0  0
 13 15  1  0  0  0  0
 15 16  2  0  0  0  0
 16 17  1  0  0  0  0
 17 18  1  0  0  0  0
 17 19  1  0  0  0  0
 19 20  2  0  0  0  0
 20 21  1  0  0  0  0
 21 22  2  0  0  0  0
 22 23  1  0  0  0  0
 23 24  2  0  0  0  0
 24 15  1  0  0  0  0
 24 19  1  0  0  0  0
 25 26  2  0  0  0  0
 26  3  1  0  0  0  0
M  END
>  <CHROM.1>
-95.93355243,-20.19787107,-88.79242655,64.34283903,-176.49795953,-134.76183051
37.55563209,40.07787497,-42.79187248,6.87228689,-1.70267286,-1.49404906,2.72247661

>  <Name>
design_15

>  <RI>
0

>  <Rbt.Current_Directory>
/home/ziqiaoxu/icml18-jtnn/VAEdesign

>  <Rbt.Executable>
rbdock ($Id: //depot/dev/client3/rdock/2013.1/src/exe/rbdock.cxx#4 $)

>  <Rbt.Library>
libRbt.so (2013.1, Build901 2013/11/27)

>  <Rbt.Parameter_File>
/export/apps/rDock/src/rDock_2013.1_src//data/scripts/dock.prm

>  <Rbt.Receptor>
/home/ziqiaoxu/icml18-jtnn/VAEdesign/targets/RdRp-SARS-CoV-2/pocket_docking.prm

>  <SCORE>
-17.6772

>  <SCORE.INTER>
-16.302

>  <SCORE.INTER.CONST>
1

>  <SCORE.INTER.POLAR>
-0.490448

>  <SCORE.INTER.REPUL>
0.00470937

>  <SCORE.INTER.ROT>
7

>  <SCORE.INTER.VDW>
-27.058

>  <SCORE.INTER.norm>
-0.626999

>  <SCORE.INTRA>
-1.39209

>  <SCORE.INTRA.DIHEDRAL>
8.90429

>  <SCORE.INTRA.DIHEDRAL.0>
5.4562

>  <SCORE.INTRA.POLAR>
0

>  <SCORE.INTRA.POLAR.0>
0

>  <SCORE.INTRA.REPUL>
0

>  <SCORE.INTRA.REPUL.0>
0

>  <SCORE.INTRA.VDW>
-5.84423

>  <SCORE.INTRA.VDW.0>
4.43247

>  <SCORE.INTRA.norm>
-0.0535419

>  <SCORE.RESTR>
0.0168213

>  <SCORE.RESTR.CAVITY>
0.0168213

>  <SCORE.RESTR.norm>
0.000646972

>  <SCORE.SYSTEM>
0

>  <SCORE.SYSTEM.CONST>
0

>  <SCORE.SYSTEM.DIHEDRAL>
0

>  <SCORE.SYSTEM.norm>
0

>  <SCORE.heavy>
26

>  <SCORE.norm>
-0.679894

$$$$
design_10
 OpenBabel05252019093D

 23 25  0  0  0  0  0  0  0  0999 V2000
   40.8367  -40.6403    4.9269 C   0  0  0  0  0  0  0  0  0  0  0  0
   40.5364  -39.1967    5.0119 C   0  0  0  0  0  0  0  0  0  0  0  0
   40.9209  -38.3629    3.9552 C   0  0  0  0  0  0  0  0  0  0  0  0
   40.6649  -37.0167    3.9585 C   0  0  0  0  0  0  0  0  0  0  0  0
   40.0066  -36.4939    5.0499 C   0  0  0  0  0  0  0  0  0  0  0  0
   39.6220  -37.3045    6.0990 C   0  0  0  0  0  0  0  0  0  0  0  0
   39.8823  -38.6631    6.0920 C   0  0  0  0  0  0  0  0  0  0  0  0
   39.4726  -39.5062    7.2299 C   0  0  0  0  0  0  0  0  0  0  0  0
   40.5680  -39.6558    8.2564 C   0  0  0  0  0  0  0  0  0  0  0  0
   40.1143  -40.5468    9.3302 N   0  0  0  0  0  0  0  0  0  0  0  0
   40.2418  -41.9489    9.2280 C   0  0  0  0  0  0  0  0  0  0  0  0
   40.7484  -42.5160    8.2188 O   0  0  0  0  0  0  0  0  0  0  0  0
   39.7738  -42.8002   10.3257 C   0  0  0  0  0  0  0  0  0  0  0  0
   40.8962  -44.1890   10.6786 S   0  0  0  0  0  0  0  0  0  0  0  0
   40.4629  -45.4861    9.5061 C   0  0  0  0  0  0  0  0  0  0  0  0
   41.1377  -45.7548    8.3739 N   0  0  0  0  0  0  0  0  0  0  0  0
   40.5079  -46.7945    7.7578 C   0  0  0  0  0  0  0  0  0  0  0  0
   40.7358  -47.4631    6.6246 N   0  0  0  0  0  0  0  0  0  0  0  0
   39.9217  -48.4859    6.2425 C   0  0  0  0  0  0  0  0  0  0  0  0
   38.8383  -48.8768    6.9944 C   0  0  0  0  0  0  0  0  0  0  0  0
   38.5803  -48.1984    8.1757 C   0  0  0  0  0  0  0  0  0  0  0  0
   39.4282  -47.1716    8.5233 C   0  0  0  0  0  0  0  0  0  0  0  0
   39.4242  -46.3556    9.5863 N   0  0  0  0  0  0  0  0  0  0  0  0
  1  2  1  0  0  0  0
  2  3  2  0  0  0  0
  3  4  1  0  0  0  0
  4  5  2  0  0  0  0
  5  6  1  0  0  0  0
  6  7  2  0  0  0  0
  7  8  1  0  0  0  0
  7  2  1  0  0  0  0
  8  9  1  0  0  0  0
  9 10  1  0  0  0  0
 10 11  1  0  0  0  0
 11 12  2  0  0  0  0
 11 13  1  0  0  0  0
 13 14  1  0  0  0  0
 14 15  1  0  0  0  0
 15 16  2  0  0  0  0
 16 17  1  0  0  0  0
 17 18  2  0  0  0  0
 18 19  1  0  0  0  0
 19 20  2  0  0  0  0
 20 21  1  0  0  0  0
 21 22  2  0  0  0  0
 22 23  1  0  0  0  0
 22 17  1  0  0  0  0
 23 15  1  0  0  0  0
M  END
>  <CHROM.1>
86.67115957,-177.73391128,85.75938983,-139.25274141,-83.50420033,100.33521955
40.19240116,-42.82848205,7.61801649,0.82004446,-1.50855112,-1.04906203

>  <Name>
design_10

>  <RI>
0

>  <Rbt.Current_Directory>
/home/ziqiaoxu/icml18-jtnn/VAEdesign

>  <Rbt.Executable>
rbdock ($Id: //depot/dev/client3/rdock/2013.1/src/exe/rbdock.cxx#4 $)

>  <Rbt.Library>
libRbt.so (2013.1, Build901 2013/11/27)

>  <Rbt.Parameter_File>
/export/apps/rDock/src/rDock_2013.1_src//data/scripts/dock.prm

>  <Rbt.Receptor>
/home/ziqiaoxu/icml18-jtnn/VAEdesign/targets/RdRp-SARS-CoV-2/pocket_docking.prm

>  <SCORE>
-22.9706

>  <SCORE.INTER>
-22.377

>  <SCORE.INTER.CONST>
1

>  <SCORE.INTER.POLAR>
-1.97621

>  <SCORE.INTER.REPUL>
0

>  <SCORE.INTER.ROT>
6

>  <SCORE.INTER.VDW>
-27.0579

>  <SCORE.INTER.norm>
-0.972914

>  <SCORE.INTRA>
-0.593595

>  <SCORE.INTRA.DIHEDRAL>
0.69055

>  <SCORE.INTRA.DIHEDRAL.0>
7.26496

>  <SCORE.INTRA.POLAR>
0

>  <SCORE.INTRA.POLAR.0>
0

>  <SCORE.INTRA.REPUL>
0

>  <SCORE.INTRA.REPUL.0>
0

>  <SCORE.INTRA.VDW>
-0.93887

>  <SCORE.INTRA.VDW.0>
-0.929867

>  <SCORE.INTRA.norm>
-0.0258085

>  <SCORE.RESTR>
0

>  <SCORE.RESTR.CAVITY>
0

>  <SCORE.RESTR.norm>
0

>  <SCORE.SYSTEM>
0

>  <SCORE.SYSTEM.CONST>
0

>  <SCORE.SYSTEM.DIHEDRAL>
0

>  <SCORE.SYSTEM.norm>
0

>  <SCORE.heavy>
23

>  <SCORE.norm>
-0.998722

$$$$
design_7
 OpenBabel05252019093D

 21 22  0  0  0  0  0  0  0  0999 V2000
   34.8306  -40.6342    4.6350 N   0  0  0  0  0  0  0  0  0  0  0  0
   35.0050  -41.4252    5.7926 C   0  0  0  0  0  0  0  0  0  0  0  0
   33.9594  -41.7542    6.4262 O   0  0  0  0  0  0  0  0  0  0  0  0
   36.3622  -41.8110    6.1883 C   0  0  0  0  0  0  0  0  0  0  0  0
   36.6381  -43.2409    6.0811 C   0  0  0  0  0  0  0  0  0  0  0  0
   37.9018  -43.6665    6.4755 C   0  0  0  0  0  0  0  0  0  0  0  0
   38.2615  -44.9625    6.4301 C   0  0  0  0  0  0  0  0  0  0  0  0
   37.3638  -45.9865    5.9714 C   0  0  0  0  0  0  0  0  0  0  0  0
   37.8855  -47.2541    6.0121 N   0  0  0  0  0  0  0  0  0  0  0  0
   38.3898  -48.4799    6.0514 C   0  0  0  0  0  0  0  0  0  0  0  0
   37.9185  -49.5486    5.5654 O   0  0  0  0  0  0  0  0  0  0  0  0
   39.7382  -48.6876    6.7791 C   0  0  0  0  0  0  0  0  0  0  0  0
   40.0243  -47.5714    7.6751 C   0  0  0  0  0  0  0  0  0  0  0  0
   41.1135  -46.7404    7.4998 C   0  0  0  0  0  0  0  0  0  0  0  0
   41.3891  -45.6866    8.3426 C   0  0  0  0  0  0  0  0  0  0  0  0
   40.5243  -45.4809    9.3919 C   0  0  0  0  0  0  0  0  0  0  0  0
   40.8148  -44.1552   10.4969 Cl  0  0  0  0  0  0  0  0  0  0  0  0
   39.4101  -46.2651    9.6394 C   0  0  0  0  0  0  0  0  0  0  0  0
   39.1832  -47.3099    8.7590 C   0  0  0  0  0  0  0  0  0  0  0  0
   36.1332  -45.5397    5.5883 C   0  0  0  0  0  0  0  0  0  0  0  0
   35.7890  -44.1873    5.6477 C   0  0  0  0  0  0  0  0  0  0  0  0
  1  2  1  0  0  0  0
  2  3  2  0  0  0  0
  2  4  1  0  0  0  0
  4  5  1  0  0  0  0
  5  6  2  0  0  0  0
  6  7  1  0  0  0  0
  7  8  2  0  0  0  0
  8  9  1  0  0  0  0
  8 20  1  0  0  0  0
  9 10  1  0  0  0  0
 10 11  2  0  0  0  0
 10 12  1  0  0  0  0
 12 13  1  0  0  0  0
 13 14  2  0  0  0  0
 14 15  1  0  0  0  0
 15 16  2  0  0  0  0
 16 17  1  0  0  0  0
 16 18  1  0  0  0  0
 18 19  2  0  0  0  0
 19 13  1  0  0  0  0
 20 21  2  0  0  0  0
 21  5  1  0  0  0  0
M  END
>  <CHROM.1>
-113.03089847,-178.46980576,164.69903093,18.51965579,-116.81596453,38.15969829
-45.14762352,7.13762994,-2.65857455,0.72276461,-2.74967366

>  <Name>
design_7

>  <RI>
0

>  <Rbt.Current_Directory>
/home/ziqiaoxu/icml18-jtnn/VAEdesign

>  <Rbt.Executable>
rbdock ($Id: //depot/dev/client3/rdock/2013.1/src/exe/rbdock.cxx#4 $)

>  <Rbt.Library>
libRbt.so (2013.1, Build901 2013/11/27)

>  <Rbt.Parameter_File>
/export/apps/rDock/src/rDock_2013.1_src//data/scripts/dock.prm

>  <Rbt.Receptor>
/home/ziqiaoxu/icml18-jtnn/VAEdesign/targets/RdRp-SARS-CoV-2/pocket_docking.prm

>  <SCORE>
-21.0888

>  <SCORE.INTER>
-19.1437

>  <SCORE.INTER.CONST>
1

>  <SCORE.INTER.POLAR>
-0.734314

>  <SCORE.INTER.REPUL>
0

>  <SCORE.INTER.ROT>
5

>  <SCORE.INTER.VDW>
-27.047

>  <SCORE.INTER.norm>
-0.911605

>  <SCORE.INTRA>
-1.94513

>  <SCORE.INTRA.DIHEDRAL>
-0.844221

>  <SCORE.INTRA.DIHEDRAL.0>
5.55598

>  <SCORE.INTRA.POLAR>
0

>  <SCORE.INTRA.POLAR.0>
0

>  <SCORE.INTRA.REPUL>
0

>  <SCORE.INTRA.REPUL.0>
0

>  <SCORE.INTRA.VDW>
-1.52302

>  <SCORE.INTRA.VDW.0>
-0.324429

>  <SCORE.INTRA.norm>
-0.0926253

>  <SCORE.RESTR>
0

>  <SCORE.RESTR.CAVITY>
0

>  <SCORE.RESTR.norm>
0

>  <SCORE.SYSTEM>
0

>  <SCORE.SYSTEM.CONST>
0

>  <SCORE.SYSTEM.DIHEDRAL>
0

>  <SCORE.SYSTEM.norm>
0

>  <SCORE.heavy>
21

>  <SCORE.norm>
-1.00423

$$$$
design_6
 OpenBabel05252019093D

 24 26  0  0  0  0  0  0  0  0999 V2000
   39.6606  -37.2191    4.9363 C   0  0  0  0  0  0  0  0  0  0  0  0
   39.6270  -38.1212    6.0837 C   0  0  0  0  0  0  0  0  0  0  0  0
   40.6075  -37.8969    7.1239 C   0  0  0  0  0  0  0  0  0  0  0  0
   40.7250  -38.7153    8.2099 C   0  0  0  0  0  0  0  0  0  0  0  0
   39.7992  -39.8929    8.3080 C   0  0  0  0  0  0  0  0  0  0  0  0
   40.1132  -40.8325    9.3659 C   0  0  0  0  0  0  0  0  0  0  0  0
   39.2923  -42.0297    9.5524 N   0  0  0  0  0  0  0  0  0  0  0  0
   39.6215  -43.2346    9.7673 C   0  0  0  0  0  0  0  0  0  0  0  0
   41.1621  -43.1849    9.5819 O   0  0  0  0  0  0  0  0  0  0  0  0
   39.5177  -44.5675   10.0809 N   0  0  0  0  0  0  0  0  0  0  0  0
   40.7151  -45.5183    9.9115 C   0  0  0  0  0  0  0  0  0  0  0  0
   40.4075  -46.3509    8.7439 C   0  0  0  0  0  0  0  0  0  0  0  0
   39.1605  -47.0373    8.8237 C   0  0  0  0  0  0  0  0  0  0  0  0
   38.8197  -47.9058    7.8329 C   0  0  0  0  0  0  0  0  0  0  0  0
   39.7259  -48.0715    6.8077 C   0  0  0  0  0  0  0  0  0  0  0  0
   40.9092  -47.4580    6.7104 N   0  0  0  0  0  0  0  0  0  0  0  0
   41.2499  -46.5437    7.7433 C   0  0  0  0  0  0  0  0  0  0  0  0
   42.5322  -45.9161    7.5098 N   0  0  0  0  0  0  0  0  0  0  0  0
   43.0589  -44.9409    8.3518 C   0  0  0  0  0  0  0  0  0  0  0  0
   44.3436  -44.6298    7.7361 C   0  0  0  0  0  0  0  0  0  0  0  0
   44.4266  -45.4634    6.6195 C   0  0  0  0  0  0  0  0  0  0  0  0
   43.3270  -46.1101    6.6519 N   0  0  0  0  0  0  0  0  0  0  0  0
   39.0393  -39.9350    7.3732 C   0  0  0  0  0  0  0  0  0  0  0  0
   38.7301  -39.2327    6.1847 C   0  0  0  0  0  0  0  0  0  0  0  0
  1  2  1  0  0  0  0
  2  3  2  0  0  0  0
  3  4  1  0  0  0  0
  4  5  2  0  0  0  0
  5  6  1  0  0  0  0
  5 23  1  0  0  0  0
  6  7  1  0  0  0  0
  7  8  1  0  0  0  0
  8  9  2  0  0  0  0
  8 10  1  0  0  0  0
 10 11  1  0  0  0  0
 11 12  1  0  0  0  0
 12 13  2  0  0  0  0
 13 14  1  0  0  0  0
 14 15  2  0  0  0  0
 15 16  1  0  0  0  0
 16 17  2  0  0  0  0
 17 18  1  0  0  0  0
 17 12  1  0  0  0  0
 18 19  1  0  0  0  0
 19 20  2  0  0  0  0
 20 21  1  0  0  0  0
 21 22  2  0  0  0  0
 22 18  1  0  0  0  0
 23 24  2  0  0  0  0
 24  2  1  0  0  0  0
M  END
>  <CHROM.1>
-179.28464976,135.67680547,-107.16428691,-54.95492271,-1.68962471,40.68775263
-43.36243080,7.93719065,-1.77606461,-0.50719292,2.93516556

>  <Name>
design_6

>  <RI>
0

>  <Rbt.Current_Directory>
/home/ziqiaoxu/icml18-jtnn/VAEdesign

>  <Rbt.Executable>
rbdock ($Id: //depot/dev/client3/rdock/2013.1/src/exe/rbdock.cxx#4 $)

>  <Rbt.Library>
libRbt.so (2013.1, Build901 2013/11/27)

>  <Rbt.Parameter_File>
/export/apps/rDock/src/rDock_2013.1_src//data/scripts/dock.prm

>  <Rbt.Receptor>
/home/ziqiaoxu/icml18-jtnn/VAEdesign/targets/RdRp-SARS-CoV-2/pocket_docking.prm

>  <SCORE>
-20.4368

>  <SCORE.INTER>
-20.099

>  <SCORE.INTER.CONST>
1

>  <SCORE.INTER.POLAR>
-1.01657

>  <SCORE.INTER.REPUL>
0

>  <SCORE.INTER.ROT>
5

>  <SCORE.INTER.VDW>
-27.0427

>  <SCORE.INTER.norm>
-0.837459

>  <SCORE.INTRA>
-0.340848

>  <SCORE.INTRA.DIHEDRAL>
-0.234414

>  <SCORE.INTRA.DIHEDRAL.0>
4.40673

>  <SCORE.INTRA.POLAR>
0

>  <SCORE.INTRA.POLAR.0>
0

>  <SCORE.INTRA.REPUL>
0

>  <SCORE.INTRA.REPUL.0>
0

>  <SCORE.INTRA.VDW>
-0.223641

>  <SCORE.INTRA.VDW.0>
-0.489463

>  <SCORE.INTRA.norm>
-0.014202

>  <SCORE.RESTR>
0.00306844

>  <SCORE.RESTR.CAVITY>
0.00306844

>  <SCORE.RESTR.norm>
0.000127852

>  <SCORE.SYSTEM>
0

>  <SCORE.SYSTEM.CONST>
0

>  <SCORE.SYSTEM.DIHEDRAL>
0

>  <SCORE.SYSTEM.norm>
0

>  <SCORE.heavy>
24

>  <SCORE.norm>
-0.851533

$$$$
design_7
 OpenBabel05252019093D

 24 25  0  0  0  0  0  0  0  0999 V2000
   38.6069  -48.8227    6.8651 C   0  0  0  0  0  0  0  0  0  0  0  0
   39.4728  -47.8055    7.5052 C   0  0  0  0  0  0  0  0  0  0  0  0
   39.1602  -47.2880    8.7456 C   0  0  0  0  0  0  0  0  0  0  0  0
   40.0187  -46.3331    9.2909 C   0  0  0  0  0  0  0  0  0  0  0  0
   41.1363  -45.9220    8.6170 C   0  0  0  0  0  0  0  0  0  0  0  0
   41.4407  -46.4412    7.3841 C   0  0  0  0  0  0  0  0  0  0  0  0
   42.6512  -46.0332    6.6220 C   0  0  0  0  0  0  0  0  0  0  0  0
   42.5990  -46.3490    5.4005 O   0  0  0  0  0  0  0  0  0  0  0  0
   43.6828  -45.3747    7.2816 N   0  0  0  0  0  0  0  0  0  0  0  0
   44.8830  -44.9153    6.7520 C   0  0  0  0  0  0  0  0  0  0  0  0
   45.3125  -45.3066    5.5050 C   0  0  0  0  0  0  0  0  0  0  0  0
   46.5204  -44.8620    4.9528 C   0  0  0  0  0  0  0  0  0  0  0  0
   47.2884  -44.0129    5.6844 C   0  0  0  0  0  0  0  0  0  0  0  0
   46.8697  -43.6127    6.9356 C   0  0  0  0  0  0  0  0  0  0  0  0
   45.6949  -44.0326    7.4964 C   0  0  0  0  0  0  0  0  0  0  0  0
   45.2019  -43.5114    9.0501 S   0  0  0  0  0  0  0  0  0  0  0  0
   45.8102  -42.1778    9.4250 O   0  0  0  0  0  0  0  0  0  0  0  0
   43.7105  -43.2900    9.0334 O   0  0  0  0  0  0  0  0  0  0  0  0
   45.5694  -44.6099   10.3295 N   0  0  0  0  0  0  0  0  0  0  0  0
   46.5860  -44.0763   11.2152 C   0  0  0  0  0  0  0  0  0  0  0  0
   46.5986  -44.9197   12.4729 C   0  0  1  0  0  0  0  0  0  0  0  0
   45.3423  -44.7450   13.2891 C   0  0  0  0  0  0  0  0  0  0  0  0
   46.7070  -46.2481   12.0944 O   0  0  0  0  0  0  0  0  0  0  0  0
   40.6066  -47.3783    6.8385 C   0  0  0  0  0  0  0  0  0  0  0  0
  1  2  1  0  0  0  0
  2  3  2  0  0  0  0
  3  4  1  0  0  0  0
  4  5  2  0  0  0  0
  5  6  1  0  0  0  0
  6  7  1  0  0  0  0
  6 24  2  0  0  0  0
  7  8  2  0  0  0  0
  7  9  1  0  0  0  0
  9 10  1  0  0  0  0
 10 11  2  0  0  0  0
 11 12  1  0  0  0  0
 12 13  2  0  0  0  0
 13 14  1  0  0  0  0
 14 15  2  0  0  0  0
 15 16  1  0  0  0  0
 15 10  1  0  0  0  0
 16 17  2  0  0  0  0
 16 18  2  0  0  0  0
 16 19  1  0  0  0  0
 19 20  1  0  0  0  0
 20 21  1  0  0  0  0
 21 22  1  6  0  0  0
 21 23  1  0  0  0  0
 24  2  1  0  0  0  0
M  END
>  <CHROM.1>
-163.48432328,-13.23400120,-154.65323290,111.59246749,166.06113664,-68.18880414
71.24567396,43.93991382,-45.21544720,8.41216025,2.77734791,-0.48463837,-1.55968479

>  <Name>
design_7

>  <RI>
0

>  <Rbt.Current_Directory>
/home/ziqiaoxu/icml18-jtnn/VAEdesign

>  <Rbt.Executable>
rbdock ($Id: //depot/dev/client3/rdock/2013.1/src/exe/rbdock.cxx#4 $)

>  <Rbt.Library>
libRbt.so (2013.1, Build901 2013/11/27)

>  <Rbt.Parameter_File>
/export/apps/rDock/src/rDock_2013.1_src//data/scripts/dock.prm

>  <Rbt.Receptor>
/home/ziqiaoxu/icml18-jtnn/VAEdesign/targets/RdRp-SARS-CoV-2/pocket_docking.prm

>  <SCORE>
-23.7753

>  <SCORE.INTER>
-22.8628

>  <SCORE.INTER.CONST>
1

>  <SCORE.INTER.POLAR>
-2.12363

>  <SCORE.INTER.REPUL>
0

>  <SCORE.INTER.ROT>
6

>  <SCORE.INTER.VDW>
-27.0425

>  <SCORE.INTER.norm>
-0.952616

>  <SCORE.INTRA>
-0.912511

>  <SCORE.INTRA.DIHEDRAL>
-1.03899

>  <SCORE.INTRA.DIHEDRAL.0>
7.5404

>  <SCORE.INTRA.POLAR>
-0.0489536

>  <SCORE.INTRA.POLAR.0>
-0.016513

>  <SCORE.INTRA.REPUL>
0

>  <SCORE.INTRA.REPUL.0>
0

>  <SCORE.INTRA.VDW>
-0.226574

>  <SCORE.INTRA.VDW.0>
-0.327686

>  <SCORE.INTRA.norm>
-0.0380213

>  <SCORE.RESTR>
0

>  <SCORE.RESTR.CAVITY>
0

>  <SCORE.RESTR.norm>
0

>  <SCORE.SYSTEM>
0

>  <SCORE.SYSTEM.CONST>
0

>  <SCORE.SYSTEM.DIHEDRAL>
0

>  <SCORE.SYSTEM.norm>
0

>  <SCORE.heavy>
24

>  <SCORE.norm>
-0.990638

$$$$
design_13
 OpenBabel05252019093D

 23 24  0  0  0  0  0  0  0  0999 V2000
   37.2694  -43.8286    5.8842 C   0  0  0  0  0  0  0  0  0  0  0  0
   36.4002  -45.4331    5.7015 S   0  0  0  0  0  0  0  0  0  0  0  0
   37.5223  -46.6802    6.3772 C   0  0  0  0  0  0  0  0  0  0  0  0
   37.6178  -47.9233    5.7833 C   0  0  0  0  0  0  0  0  0  0  0  0
   38.4658  -48.8761    6.2874 C   0  0  0  0  0  0  0  0  0  0  0  0
   39.2181  -48.5604    7.3996 C   0  0  0  0  0  0  0  0  0  0  0  0
   39.1670  -47.3395    8.0371 C   0  0  0  0  0  0  0  0  0  0  0  0
   39.9514  -46.9955    9.1568 N   0  0  0  0  0  0  0  0  0  0  0  0
   40.7471  -45.5064    9.3343 S   0  0  0  0  0  0  0  0  0  0  0  0
   39.7435  -44.4040    8.9616 O   0  0  0  0  0  0  0  0  0  0  0  0
   41.0858  -45.2404   10.8012 O   0  0  0  0  0  0  0  0  0  0  0  0
   42.2053  -45.3045    8.4491 C   0  0  0  0  0  0  0  0  0  0  0  0
   42.3412  -45.8631    7.2075 C   0  0  0  0  0  0  0  0  0  0  0  0
   43.5247  -45.6606    6.4820 C   0  0  0  0  0  0  0  0  0  0  0  0
   44.5522  -44.9108    6.9949 C   0  0  0  0  0  0  0  0  0  0  0  0
   45.7430  -44.7151    6.2538 N   0  0  0  0  0  0  0  0  0  0  0  0
   45.8821  -44.9542    4.5727 S   0  0  0  0  0  0  0  0  0  0  0  0
   47.1315  -46.1411    4.1509 C   0  0  0  0  0  0  0  0  0  0  0  0
   46.1577  -43.6397    3.9036 O   0  0  0  0  0  0  0  0  0  0  0  0
   44.5906  -45.4585    3.9854 O   0  0  0  0  0  0  0  0  0  0  0  0
   44.3918  -44.3595    8.2456 C   0  0  0  0  0  0  0  0  0  0  0  0
   43.2348  -44.5485    8.9725 C   0  0  0  0  0  0  0  0  0  0  0  0
   38.2818  -46.3902    7.4843 C   0  0  0  0  0  0  0  0  0  0  0  0
  1  2  1  0  0  0  0
  2  3  1  0  0  0  0
  3  4  2  0  0  0  0
  4  5  1  0  0  0  0
  5  6  2  0  0  0  0
  6  7  1  0  0  0  0
  7  8  1  0  0  0  0
  7 23  2  0  0  0  0
  8  9  1  0  0  0  0
  9 10  2  0  0  0  0
  9 11  2  0  0  0  0
  9 12  1  0  0  0  0
 12 13  2  0  0  0  0
 13 14  1  0  0  0  0
 14 15  2  0  0  0  0
 15 16  1  0  0  0  0
 15 21  1  0  0  0  0
 16 17  1  0  0  0  0
 17 18  1  0  0  0  0
 17 19  2  0  0  0  0
 17 20  2  0  0  0  0
 21 22  2  0  0  0  0
 22 12  1  0  0  0  0
 23  3  1  0  0  0  0
M  END
>  <CHROM.1>
-142.60971603,136.05808786,46.32510580,35.14632522,18.45822269,-122.23312074
41.52633382,-45.65408382,6.89056253,2.91775939,0.19723643,1.48465167

>  <Name>
design_13

>  <RI>
0

>  <Rbt.Current_Directory>
/home/ziqiaoxu/icml18-jtnn/VAEdesign

>  <Rbt.Executable>
rbdock ($Id: //depot/dev/client3/rdock/2013.1/src/exe/rbdock.cxx#4 $)

>  <Rbt.Library>
libRbt.so (2013.1, Build901 2013/11/27)

>  <Rbt.Parameter_File>
/export/apps/rDock/src/rDock_2013.1_src//data/scripts/dock.prm

>  <Rbt.Receptor>
/home/ziqiaoxu/icml18-jtnn/VAEdesign/targets/RdRp-SARS-CoV-2/pocket_docking.prm

>  <SCORE>
-22.8818

>  <SCORE.INTER>
-20.2818

>  <SCORE.INTER.CONST>
1

>  <SCORE.INTER.POLAR>
-1.3661

>  <SCORE.INTER.REPUL>
0

>  <SCORE.INTER.ROT>
6

>  <SCORE.INTER.VDW>
-27.0371

>  <SCORE.INTER.norm>
-0.881818

>  <SCORE.INTRA>
-2.59999

>  <SCORE.INTRA.DIHEDRAL>
-7.78782

>  <SCORE.INTRA.DIHEDRAL.0>
20.6137

>  <SCORE.INTRA.POLAR>
0

>  <SCORE.INTRA.POLAR.0>
0

>  <SCORE.INTRA.REPUL>
0

>  <SCORE.INTRA.REPUL.0>
0

>  <SCORE.INTRA.VDW>
1.29392

>  <SCORE.INTRA.VDW.0>
-3.67849

>  <SCORE.INTRA.norm>
-0.113043

>  <SCORE.RESTR>
0

>  <SCORE.RESTR.CAVITY>
0

>  <SCORE.RESTR.norm>
0

>  <SCORE.SYSTEM>
0

>  <SCORE.SYSTEM.CONST>
0

>  <SCORE.SYSTEM.DIHEDRAL>
0

>  <SCORE.SYSTEM.norm>
0

>  <SCORE.heavy>
23

>  <SCORE.norm>
-0.994861

$$$$
design_19
 OpenBabel05252019093D

 25 27  0  0  0  0  0  0  0  0999 V2000
   39.4939  -42.0134   10.9890 C   0  0  0  0  0  0  0  0  0  0  0  0
   39.7027  -42.9731    9.8150 C   0  0  0  0  0  0  0  0  0  0  0  0
   39.9400  -42.2428    8.5406 C   0  0  0  0  0  0  0  0  0  0  0  0
   40.7497  -43.9599   10.2094 C   0  0  0  0  0  0  0  0  0  0  0  0
   40.9792  -45.0134    9.2418 N   0  0  0  0  0  0  0  0  0  0  0  0
   42.0911  -45.2358    8.5187 C   0  0  0  0  0  0  0  0  0  0  0  0
   43.3169  -44.3746    8.6237 C   0  0  0  0  0  0  0  0  0  0  0  0
   44.4549  -44.9760    7.8213 C   0  0  0  0  0  0  0  0  0  0  0  0
   44.1509  -44.8648    6.3593 C   0  0  0  0  0  0  0  0  0  0  0  0
   45.1033  -45.5208    5.4949 N   0  0  0  0  0  0  0  0  0  0  0  0
   45.0390  -45.5027    4.0943 C   0  0  0  0  0  0  0  0  0  0  0  0
   44.1069  -44.8876    3.5260 O   0  0  0  0  0  0  0  0  0  0  0  0
   46.0386  -46.1869    3.2839 C   0  0  0  0  0  0  0  0  0  0  0  0
   45.9528  -46.3074    1.9134 C   0  0  0  0  0  0  0  0  0  0  0  0
   46.9399  -46.9776    1.2066 C   0  0  0  0  0  0  0  0  0  0  0  0
   48.0290  -47.5422    1.8268 C   0  0  0  0  0  0  0  0  0  0  0  0
   48.0935  -47.4091    3.1962 C   0  0  0  0  0  0  0  0  0  0  0  0
   47.1410  -46.7559    3.9317 C   0  0  0  0  0  0  0  0  0  0  0  0
   41.9075  -46.3071    7.7304 N   0  0  0  0  0  0  0  0  0  0  0  0
   40.6900  -46.7923    7.9244 C   0  0  0  0  0  0  0  0  0  0  0  0
   40.0015  -47.8749    7.3677 C   0  0  0  0  0  0  0  0  0  0  0  0
   38.7125  -48.1104    7.7959 C   0  0  0  0  0  0  0  0  0  0  0  0
   38.1074  -47.3161    8.7395 C   0  0  0  0  0  0  0  0  0  0  0  0
   38.7969  -46.2565    9.2771 C   0  0  0  0  0  0  0  0  0  0  0  0
   40.1042  -45.9852    8.8702 C   0  0  0  0  0  0  0  0  0  0  0  0
  1  2  1  0  0  0  0
  2  3  1  0  0  0  0
  2  4  1  0  0  0  0
  4  5  1  0  0  0  0
  5  6  1  0  0  0  0
  6  7  1  0  0  0  0
  6 19  2  0  0  0  0
  7  8  1  0  0  0  0
  8  9  1  0  0  0  0
  9 10  1  0  0  0  0
 10 11  1  0  0  0  0
 11 12  2  0  0  0  0
 11 13  1  0  0  0  0
 13 14  2  0  0  0  0
 14 15  1  0  0  0  0
 15 16  2  0  0  0  0
 16 17  1  0  0  0  0
 17 18  2  0  0  0  0
 18 13  1  0  0  0  0
 19 20  1  0  0  0  0
 20 21  2  0  0  0  0
 21 22  1  0  0  0  0
 22 23  2  0  0  0  0
 23 24  1  0  0  0  0
 24 25  2  0  0  0  0
 25  5  1  0  0  0  0
 25 20  1  0  0  0  0
M  END
>  <CHROM.1>
174.87145031,114.07552354,172.90586311,69.59706362,-174.27134839,-177.65380710
173.63380434,42.77333481,-45.58938349,6.68780642,-2.59145248,-0.57003921
-2.55854488

>  <Name>
design_19

>  <RI>
0

>  <Rbt.Current_Directory>
/home/ziqiaoxu/icml18-jtnn/VAEdesign

>  <Rbt.Executable>
rbdock ($Id: //depot/dev/client3/rdock/2013.1/src/exe/rbdock.cxx#4 $)

>  <Rbt.Library>
libRbt.so (2013.1, Build901 2013/11/27)

>  <Rbt.Parameter_File>
/export/apps/rDock/src/rDock_2013.1_src//data/scripts/dock.prm

>  <Rbt.Receptor>
/home/ziqiaoxu/icml18-jtnn/VAEdesign/targets/RdRp-SARS-CoV-2/pocket_docking.prm

>  <SCORE>
-16.6151

>  <SCORE.INTER>
-17.6781

>  <SCORE.INTER.CONST>
1

>  <SCORE.INTER.POLAR>
-0.894427

>  <SCORE.INTER.REPUL>
0

>  <SCORE.INTER.ROT>
7

>  <SCORE.INTER.VDW>
-27.0371

>  <SCORE.INTER.norm>
-0.707126

>  <SCORE.INTRA>
1.06305

>  <SCORE.INTRA.DIHEDRAL>
0.288503

>  <SCORE.INTRA.DIHEDRAL.0>
5.47017

>  <SCORE.INTRA.POLAR>
0

>  <SCORE.INTRA.POLAR.0>
0

>  <SCORE.INTRA.REPUL>
0

>  <SCORE.INTRA.REPUL.0>
0

>  <SCORE.INTRA.VDW>
0.918801

>  <SCORE.INTRA.VDW.0>
-2.03754

>  <SCORE.INTRA.norm>
0.0425221

>  <SCORE.RESTR>
0

>  <SCORE.RESTR.CAVITY>
0

>  <SCORE.RESTR.norm>
0

>  <SCORE.SYSTEM>
0

>  <SCORE.SYSTEM.CONST>
0

>  <SCORE.SYSTEM.DIHEDRAL>
0

>  <SCORE.SYSTEM.norm>
0

>  <SCORE.heavy>
25

>  <SCORE.norm>
-0.664604

$$$$
design_7
 OpenBabel05252019093D

 23 24  0  0  0  0  0  0  0  0999 V2000
   40.0579  -46.3878   10.3874 N   0  0  0  0  0  0  0  0  0  0  0  0
   40.6087  -46.1171    9.0571 C   0  0  0  0  0  0  0  0  0  0  0  0
   41.3884  -45.1636    9.0426 O   0  0  0  0  0  0  0  0  0  0  0  0
   40.1872  -46.9609    7.9899 C   0  0  0  0  0  0  0  0  0  0  0  0
   39.0617  -47.7639    8.1956 C   0  0  0  0  0  0  0  0  0  0  0  0
   38.5695  -48.5589    7.2071 C   0  0  0  0  0  0  0  0  0  0  0  0
   39.1452  -48.6136    5.9716 C   0  0  0  0  0  0  0  0  0  0  0  0
   40.2641  -47.8174    5.7663 C   0  0  0  0  0  0  0  0  0  0  0  0
   40.7972  -47.0006    6.7304 C   0  0  0  0  0  0  0  0  0  0  0  0
   41.9737  -46.2706    6.4999 N   0  0  0  0  0  0  0  0  0  0  0  0
   42.6002  -46.0929    5.2545 C   0  0  0  0  0  0  0  0  0  0  0  0
   42.1996  -46.5466    4.1884 O   0  0  0  0  0  0  0  0  0  0  0  0
   43.8684  -45.2823    5.2006 C   0  0  0  0  0  0  0  0  0  0  0  0
   44.6131  -45.3321    6.4166 N   0  0  0  0  0  0  0  0  0  0  0  0
   44.4787  -44.4174    7.5064 C   0  0  0  0  0  0  0  0  0  0  0  0
   43.6512  -43.4723    7.4126 O   0  0  0  0  0  0  0  0  0  0  0  0
   45.2545  -44.5538    8.6824 N   0  0  0  0  0  0  0  0  0  0  0  0
   45.0728  -43.6034    9.7403 C   0  0  0  0  0  0  0  0  0  0  0  0
   45.3076  -44.2000   11.0983 C   0  0  0  0  0  0  0  0  0  0  0  0
   44.5225  -44.2160   12.2148 C   0  0  0  0  0  0  0  0  0  0  0  0
   44.9981  -44.8331   13.3015 C   0  0  0  0  0  0  0  0  0  0  0  0
   46.2408  -45.4033   13.2093 C   0  0  0  0  0  0  0  0  0  0  0  0
   46.6974  -45.0540   11.6034 S   0  0  0  0  0  0  0  0  0  0  0  0
  1  2  1  0  0  0  0
  2  3  2  0  0  0  0
  2  4  1  0  0  0  0
  4  5  2  0  0  0  0
  5  6  1  0  0  0  0
  6  7  2  0  0  0  0
  7  8  1  0  0  0  0
  8  9  2  0  0  0  0
  9 10  1  0  0  0  0
  9  4  1  0  0  0  0
 10 11  1  0  0  0  0
 11 12  2  0  0  0  0
 11 13  1  0  0  0  0
 13 14  1  0  0  0  0
 14 15  1  0  0  0  0
 15 16  2  0  0  0  0
 15 17  1  0  0  0  0
 17 18  1  0  0  0  0
 18 19  1  0  0  0  0
 19 20  2  0  0  0  0
 20 21  1  0  0  0  0
 21 22  2  0  0  0  0
 22 23  1  0  0  0  0
 23 19  1  0  0  0  0
M  END
>  <CHROM.1>
15.04827701,-172.02836411,28.43405391,-90.93651520,148.54506989,-126.71391432
42.92066937,-45.74119927,8.52710836,2.43450762,-0.46352188,-1.56442508

>  <Name>
design_7

>  <RI>
0

>  <Rbt.Current_Directory>
/home/ziqiaoxu/icml18-jtnn/VAEdesign

>  <Rbt.Executable>
rbdock ($Id: //depot/dev/client3/rdock/2013.1/src/exe/rbdock.cxx#4 $)

>  <Rbt.Library>
libRbt.so (2013.1, Build901 2013/11/27)

>  <Rbt.Parameter_File>
/export/apps/rDock/src/rDock_2013.1_src//data/scripts/dock.prm

>  <Rbt.Receptor>
/home/ziqiaoxu/icml18-jtnn/VAEdesign/targets/RdRp-SARS-CoV-2/pocket_docking.prm

>  <SCORE>
-29.5607

>  <SCORE.INTER>
-28.5141

>  <SCORE.INTER.CONST>
1

>  <SCORE.INTER.POLAR>
-3.80641

>  <SCORE.INTER.REPUL>
0.0117493

>  <SCORE.INTER.ROT>
6

>  <SCORE.INTER.VDW>
-27.031

>  <SCORE.INTER.norm>
-1.23974

>  <SCORE.INTRA>
-1.04658

>  <SCORE.INTRA.DIHEDRAL>
0.208311

>  <SCORE.INTRA.DIHEDRAL.0>
5.03486

>  <SCORE.INTRA.POLAR>
0

>  <SCORE.INTRA.POLAR.0>
0

>  <SCORE.INTRA.REPUL>
0

>  <SCORE.INTRA.REPUL.0>
0

>  <SCORE.INTRA.VDW>
-1.15074

>  <SCORE.INTRA.VDW.0>
-1.14531

>  <SCORE.INTRA.norm>
-0.0455037

>  <SCORE.RESTR>
0

>  <SCORE.RESTR.CAVITY>
0

>  <SCORE.RESTR.norm>
0

>  <SCORE.SYSTEM>
0

>  <SCORE.SYSTEM.CONST>
0

>  <SCORE.SYSTEM.DIHEDRAL>
0

>  <SCORE.SYSTEM.norm>
0

>  <SCORE.heavy>
23

>  <SCORE.norm>
-1.28525

$$$$
design_6
 OpenBabel05252019093D

 23 25  0  0  0  0  0  0  0  0999 V2000
   45.6426  -44.9805    5.6180 C   0  0  0  0  0  0  0  0  0  0  0  0
   44.6149  -44.9730    6.7285 C   0  0  0  0  0  0  0  0  0  0  0  0
   44.6520  -44.3236    7.8744 N   0  0  0  0  0  0  0  0  0  0  0  0
   43.6717  -44.4331    8.7222 C   0  0  0  0  0  0  0  0  0  0  0  0
   42.6148  -45.2265    8.4033 C   0  0  0  0  0  0  0  0  0  0  0  0
   41.3904  -45.5771    9.0707 C   0  0  0  0  0  0  0  0  0  0  0  0
   41.2125  -45.0495   10.2359 O   0  0  0  0  0  0  0  0  0  0  0  0
   40.3754  -46.4069    8.6282 N   0  0  0  0  0  0  0  0  0  0  0  0
   39.1815  -46.6488    9.4605 C   0  0  0  0  0  0  0  0  0  0  0  0
   37.9048  -46.4590    8.6998 C   0  0  0  0  0  0  0  0  0  0  0  0
   37.9488  -47.0403    7.3954 N   0  0  0  0  0  0  0  0  0  0  0  0
   37.7730  -46.1060    6.3391 C   0  0  0  0  0  0  0  0  0  0  0  0
   36.3262  -45.8209    6.0377 C   0  0  0  0  0  0  0  0  0  0  0  0
   36.1815  -44.7021    5.1821 O   0  0  0  0  0  0  0  0  0  0  0  0
   36.4700  -43.4426    5.7030 C   0  0  0  0  0  0  0  0  0  0  0  0
   35.4914  -42.5106    5.9594 C   0  0  0  0  0  0  0  0  0  0  0  0
   35.7990  -41.2833    6.4701 C   0  0  0  0  0  0  0  0  0  0  0  0
   37.1120  -40.9733    6.7330 C   0  0  0  0  0  0  0  0  0  0  0  0
   38.0769  -41.8721    6.4880 N   0  0  0  0  0  0  0  0  0  0  0  0
   37.7724  -43.0696    5.9893 C   0  0  0  0  0  0  0  0  0  0  0  0
   39.0551  -47.9272    7.2911 C   0  0  0  0  0  0  0  0  0  0  0  0
   40.3555  -47.1058    7.3661 C   0  0  0  0  0  0  0  0  0  0  0  0
   43.1235  -45.7923    6.8270 S   0  0  0  0  0  0  0  0  0  0  0  0
  1  2  1  0  0  0  0
  2  3  2  0  0  0  0
  3  4  1  0  0  0  0
  4  5  2  0  0  0  0
  5  6  1  0  0  0  0
  5 23  1  0  0  0  0
  6  7  2  0  0  0  0
  6  8  1  0  0  0  0
  8  9  1  0  0  0  0
  9 10  1  0  0  0  0
 10 11  1  0  0  0  0
 11 12  1  0  0  0  0
 11 21  1  0  0  0  0
 12 13  1  0  0  0  0
 13 14  1  0  0  0  0
 14 15  1  0  0  0  0
 15 16  2  0  0  0  0
 16 17  1  0  0  0  0
 17 18  2  0  0  0  0
 18 19  1  0  0  0  0
 19 20  2  0  0  0  0
 20 15  1  0  0  0  0
 21 22  1  0  0  0  0
 22  8  1  0  0  0  0
 23  2  1  0  0  0  0
M  END
>  <CHROM.1>
-0.27860630,-84.28584159,168.09436686,-70.44463652,-109.18585858,39.86485327
-44.94657783,7.24913456,-0.29384547,-0.08121392,-0.36674951

>  <Name>
design_6

>  <RI>
0

>  <Rbt.Current_Directory>
/home/ziqiaoxu/icml18-jtnn/VAEdesign

>  <Rbt.Executable>
rbdock ($Id: //depot/dev/client3/rdock/2013.1/src/exe/rbdock.cxx#4 $)

>  <Rbt.Library>
libRbt.so (2013.1, Build901 2013/11/27)

>  <Rbt.Parameter_File>
/export/apps/rDock/src/rDock_2013.1_src//data/scripts/dock.prm

>  <Rbt.Receptor>
/home/ziqiaoxu/icml18-jtnn/VAEdesign/targets/RdRp-SARS-CoV-2/pocket_docking.prm

>  <SCORE>
-16.0699

>  <SCORE.INTER>
-16.6232

>  <SCORE.INTER.CONST>
1

>  <SCORE.INTER.POLAR>
0

>  <SCORE.INTER.REPUL>
0.000451362

>  <SCORE.INTER.ROT>
5

>  <SCORE.INTER.VDW>
-27.0255

>  <SCORE.INTER.norm>
-0.722749

>  <SCORE.INTRA>
0.55335

>  <SCORE.INTRA.DIHEDRAL>
6.41695

>  <SCORE.INTRA.DIHEDRAL.0>
0.0798018

>  <SCORE.INTRA.POLAR>
0

>  <SCORE.INTRA.POLAR.0>
0

>  <SCORE.INTRA.REPUL>
0

>  <SCORE.INTRA.REPUL.0>
0

>  <SCORE.INTRA.VDW>
-2.65512

>  <SCORE.INTRA.VDW.0>
2.4826

>  <SCORE.INTRA.norm>
0.0240587

>  <SCORE.RESTR>
0

>  <SCORE.RESTR.CAVITY>
0

>  <SCORE.RESTR.norm>
0

>  <SCORE.SYSTEM>
0

>  <SCORE.SYSTEM.CONST>
0

>  <SCORE.SYSTEM.DIHEDRAL>
0

>  <SCORE.SYSTEM.norm>
0

>  <SCORE.heavy>
23

>  <SCORE.norm>
-0.69869

$$$$
design_8
 OpenBabel05252019093D

 23 25  0  0  0  0  0  0  0  0999 V2000
   39.2969  -48.6804    6.8206 C   0  0  0  0  0  0  0  0  0  0  0  0
   39.8972  -47.5585    7.6272 C   0  0  0  0  0  0  0  0  0  0  0  0
   41.0162  -46.9099    7.3564 N   0  0  0  0  0  0  0  0  0  0  0  0
   41.4219  -45.9590    8.1373 C   0  0  0  0  0  0  0  0  0  0  0  0
   42.6996  -45.1853    7.8676 C   0  0  0  0  0  0  0  0  0  0  0  0
   40.6524  -45.6649    9.2328 C   0  0  0  0  0  0  0  0  0  0  0  0
   40.8893  -44.6295   10.2788 C   0  0  0  0  0  0  0  0  0  0  0  0
   39.7725  -43.6393   10.3571 C   0  0  0  0  0  0  0  0  0  0  0  0
   39.7447  -42.6960    9.2755 N   0  0  0  0  0  0  0  0  0  0  0  0
   39.9445  -41.3059    9.4394 C   0  0  0  0  0  0  0  0  0  0  0  0
   40.1605  -40.8602   10.5952 O   0  0  0  0  0  0  0  0  0  0  0  0
   39.9112  -40.3663    8.3237 C   0  0  0  0  0  0  0  0  0  0  0  0
   40.3694  -39.0708    8.4366 C   0  0  0  0  0  0  0  0  0  0  0  0
   40.3170  -38.2153    7.3560 C   0  0  0  0  0  0  0  0  0  0  0  0
   39.8166  -38.5991    6.1346 C   0  0  0  0  0  0  0  0  0  0  0  0
   39.7665  -37.6964    5.0132 N   0  0  0  0  0  0  0  0  0  0  0  0
   40.2862  -36.4650    4.9791 C   0  0  0  0  0  0  0  0  0  0  0  0
   40.0378  -35.9141    3.7406 C   0  0  0  0  0  0  0  0  0  0  0  0
   39.3649  -36.8579    3.0688 N   0  0  0  0  0  0  0  0  0  0  0  0
   39.2078  -37.9196    3.8380 N   0  0  0  0  0  0  0  0  0  0  0  0
   39.3621  -39.8931    6.0322 C   0  0  0  0  0  0  0  0  0  0  0  0
   39.4050  -40.7641    7.0990 C   0  0  0  0  0  0  0  0  0  0  0  0
   39.3715  -46.8020    9.0583 S   0  0  0  0  0  0  0  0  0  0  0  0
  1  2  1  0  0  0  0
  2  3  2  0  0  0  0
  3  4  1  0  0  0  0
  4  5  1  0  0  0  0
  4  6  2  0  0  0  0
  6  7  1  0  0  0  0
  6 23  1  0  0  0  0
  7  8  1  0  0  0  0
  8  9  1  0  0  0  0
  9 10  1  0  0  0  0
 10 11  2  0  0  0  0
 10 12  1  0  0  0  0
 12 13  2  0  0  0  0
 13 14  1  0  0  0  0
 14 15  2  0  0  0  0
 15 16  1  0  0  0  0
 15 21  1  0  0  0  0
 16 17  1  0  0  0  0
 17 18  2  0  0  0  0
 18 19  1  0  0  0  0
 19 20  2  0  0  0  0
 20 16  1  0  0  0  0
 21 22  2  0  0  0  0
 22 12  1  0  0  0  0
 23  2  1  0  0  0  0
M  END
>  <CHROM.1>
120.53661418,-74.14952402,-115.28020108,-166.46010258,6.19817845,40.07794684
-42.12632663,7.50105707,0.96565699,1.48698220,-2.90601254

>  <Name>
design_8

>  <RI>
0

>  <Rbt.Current_Directory>
/home/ziqiaoxu/icml18-jtnn/VAEdesign

>  <Rbt.Executable>
rbdock ($Id: //depot/dev/client3/rdock/2013.1/src/exe/rbdock.cxx#4 $)

>  <Rbt.Library>
libRbt.so (2013.1, Build901 2013/11/27)

>  <Rbt.Parameter_File>
/export/apps/rDock/src/rDock_2013.1_src//data/scripts/dock.prm

>  <Rbt.Receptor>
/home/ziqiaoxu/icml18-jtnn/VAEdesign/targets/RdRp-SARS-CoV-2/pocket_docking.prm

>  <SCORE>
-24.5616

>  <SCORE.INTER>
-18.2809

>  <SCORE.INTER.CONST>
1

>  <SCORE.INTER.POLAR>
-0.487382

>  <SCORE.INTER.REPUL>
0

>  <SCORE.INTER.ROT>
5

>  <SCORE.INTER.VDW>
-27.0238

>  <SCORE.INTER.norm>
-0.794821

>  <SCORE.INTRA>
-6.28591

>  <SCORE.INTRA.DIHEDRAL>
-13.9732

>  <SCORE.INTRA.DIHEDRAL.0>
16.7508

>  <SCORE.INTRA.POLAR>
0

>  <SCORE.INTRA.POLAR.0>
0

>  <SCORE.INTRA.REPUL>
0

>  <SCORE.INTRA.REPUL.0>
0

>  <SCORE.INTRA.VDW>
0.700673

>  <SCORE.INTRA.VDW.0>
-2.16482

>  <SCORE.INTRA.norm>
-0.2733

>  <SCORE.RESTR>
0.00518482

>  <SCORE.RESTR.CAVITY>
0.00518482

>  <SCORE.RESTR.norm>
0.000225427

>  <SCORE.SYSTEM>
0

>  <SCORE.SYSTEM.CONST>
0

>  <SCORE.SYSTEM.DIHEDRAL>
0

>  <SCORE.SYSTEM.norm>
0

>  <SCORE.heavy>
23

>  <SCORE.norm>
-1.0679

$$$$
design_6
 OpenBabel05252019093D

 25 27  0  0  0  0  0  0  0  0999 V2000
   50.1055  -47.5285    3.8942 C   0  0  0  0  0  0  0  0  0  0  0  0
   48.7809  -47.3683    3.1814 C   0  0  0  0  0  0  0  0  0  0  0  0
   48.7397  -47.9015    2.0658 O   0  0  0  0  0  0  0  0  0  0  0  0
   47.7191  -46.6600    3.7882 N   0  0  0  0  0  0  0  0  0  0  0  0
   46.4585  -46.4292    3.2426 C   0  0  0  0  0  0  0  0  0  0  0  0
   46.2080  -46.8339    1.9231 C   0  0  0  0  0  0  0  0  0  0  0  0
   45.0015  -46.5269    1.3047 C   0  0  0  0  0  0  0  0  0  0  0  0
   44.0432  -45.8254    1.9750 C   0  0  0  0  0  0  0  0  0  0  0  0
   44.3074  -45.4345    3.2781 C   0  0  0  0  0  0  0  0  0  0  0  0
   45.4819  -45.7145    3.9332 C   0  0  0  0  0  0  0  0  0  0  0  0
   45.6336  -45.3424    5.3231 C   0  0  0  0  0  0  0  0  0  0  0  0
   46.7095  -44.8991    5.8277 O   0  0  0  0  0  0  0  0  0  0  0  0
   44.5283  -45.4615    6.2312 N   0  0  0  0  0  0  0  0  0  0  0  0
   44.6102  -45.1207    7.6370 C   0  0  0  0  0  0  0  0  0  0  0  0
   43.3271  -44.5338    8.0985 C   0  0  0  0  0  0  0  0  0  0  0  0
   42.1847  -45.4991    7.9480 C   0  0  0  0  0  0  0  0  0  0  0  0
   41.9901  -46.3296    6.9128 N   0  0  0  0  0  0  0  0  0  0  0  0
   40.8622  -47.0310    7.1458 C   0  0  0  0  0  0  0  0  0  0  0  0
   40.2236  -48.0062    6.4015 C   0  0  0  0  0  0  0  0  0  0  0  0
   39.0644  -48.5823    6.8602 C   0  0  0  0  0  0  0  0  0  0  0  0
   38.5332  -48.1794    8.0812 C   0  0  0  0  0  0  0  0  0  0  0  0
   39.1761  -47.2080    8.8148 C   0  0  0  0  0  0  0  0  0  0  0  0
   40.3363  -46.6199    8.3730 C   0  0  0  0  0  0  0  0  0  0  0  0
   41.1903  -45.6826    8.8124 N   0  0  0  0  0  0  0  0  0  0  0  0
   41.0325  -44.9803   10.0580 C   0  0  0  0  0  0  0  0  0  0  0  0
  1  2  1  0  0  0  0
  2  3  2  0  0  0  0
  2  4  1  0  0  0  0
  4  5  1  0  0  0  0
  5  6  2  0  0  0  0
  6  7  1  0  0  0  0
  7  8  2  0  0  0  0
  8  9  1  0  0  0  0
  9 10  2  0  0  0  0
 10 11  1  0  0  0  0
 10  5  1  0  0  0  0
 11 12  2  0  0  0  0
 11 13  1  0  0  0  0
 13 14  1  0  0  0  0
 14 15  1  0  0  0  0
 15 16  1  0  0  0  0
 16 17  2  0  0  0  0
 17 18  1  0  0  0  0
 18 19  2  0  0  0  0
 19 20  1  0  0  0  0
 20 21  2  0  0  0  0
 21 22  1  0  0  0  0
 22 23  2  0  0  0  0
 23 24  1  0  0  0  0
 23 18  1  0  0  0  0
 24 25  1  0  0  0  0
 24 16  1  0  0  0  0
M  END
>  <CHROM.1>
-5.28158038,42.23191392,144.66812120,61.19148153,-39.97252716,43.94320336
-46.37296253,5.65212921,-0.56065459,0.28096042,1.14528259

>  <Name>
design_6

>  <RI>
0

>  <Rbt.Current_Directory>
/home/ziqiaoxu/icml18-jtnn/VAEdesign

>  <Rbt.Executable>
rbdock ($Id: //depot/dev/client3/rdock/2013.1/src/exe/rbdock.cxx#4 $)

>  <Rbt.Library>
libRbt.so (2013.1, Build901 2013/11/27)

>  <Rbt.Parameter_File>
/export/apps/rDock/src/rDock_2013.1_src//data/scripts/dock.prm

>  <Rbt.Receptor>
/home/ziqiaoxu/icml18-jtnn/VAEdesign/targets/RdRp-SARS-CoV-2/pocket_docking.prm

>  <SCORE>
-18.9437

>  <SCORE.INTER>
-18.5808

>  <SCORE.INTER.CONST>
1

>  <SCORE.INTER.POLAR>
-0.576427

>  <SCORE.INTER.REPUL>
0

>  <SCORE.INTER.ROT>
5

>  <SCORE.INTER.VDW>
-27.0209

>  <SCORE.INTER.norm>
-0.743231

>  <SCORE.INTRA>
-0.362952

>  <SCORE.INTRA.DIHEDRAL>
3.53314

>  <SCORE.INTRA.DIHEDRAL.0>
4.45485

>  <SCORE.INTRA.POLAR>
-0.62699

>  <SCORE.INTRA.POLAR.0>
0

>  <SCORE.INTRA.REPUL>
0

>  <SCORE.INTRA.REPUL.0>
0

>  <SCORE.INTRA.VDW>
0.00224271

>  <SCORE.INTRA.VDW.0>
-1.08453

>  <SCORE.INTRA.norm>
-0.0145181

>  <SCORE.RESTR>
0

>  <SCORE.RESTR.CAVITY>
0

>  <SCORE.RESTR.norm>
0

>  <SCORE.SYSTEM>
0

>  <SCORE.SYSTEM.CONST>
0

>  <SCORE.SYSTEM.DIHEDRAL>
0

>  <SCORE.SYSTEM.norm>
0

>  <SCORE.heavy>
25

>  <SCORE.norm>
-0.757749

$$$$
design_17
 OpenBabel05252019093D

 25 28  0  0  0  0  0  0  0  0999 V2000
   42.4187  -45.9899    7.6866 F   0  0  0  0  0  0  0  0  0  0  0  0
   41.1395  -46.2949    8.0689 C   0  0  0  0  0  0  0  0  0  0  0  0
   40.4194  -47.2737    7.4213 C   0  0  0  0  0  0  0  0  0  0  0  0
   39.1366  -47.5691    7.8160 C   0  0  0  0  0  0  0  0  0  0  0  0
   38.5724  -46.8654    8.8808 C   0  0  0  0  0  0  0  0  0  0  0  0
   39.2907  -45.8880    9.5277 C   0  0  0  0  0  0  0  0  0  0  0  0
   40.5742  -45.5973    9.1277 C   0  0  0  0  0  0  0  0  0  0  0  0
   41.3324  -44.5532    9.8221 C   0  0  0  0  0  0  0  0  0  0  0  0
   40.6648  -43.2247    9.7589 C   0  0  0  0  0  0  0  0  0  0  0  0
   39.9884  -42.7010   10.7824 N   0  0  0  0  0  0  0  0  0  0  0  0
   39.5208  -41.5361   10.4249 N   0  0  0  0  0  0  0  0  0  0  0  0
   39.8891  -41.2955    9.1694 C   0  0  0  0  0  0  0  0  0  0  0  0
   39.5427  -40.0468    8.3963 C   0  0  1  0  0  0  0  0  0  0  0  0
   40.7540  -39.1776    8.4341 C   0  0  0  0  0  0  0  0  0  0  0  0
   40.5768  -37.9617    7.5766 C   0  0  0  0  0  0  0  0  0  0  0  0
   39.7515  -38.1852    6.3459 C   0  0  0  0  0  0  0  0  0  0  0  0
   39.5963  -39.5455    5.9755 N   0  0  0  0  0  0  0  0  0  0  0  0
   40.6659  -40.1638    5.2792 C   0  0  0  0  0  0  0  0  0  0  0  0
   41.0254  -39.3992    4.0336 C   0  0  0  0  0  0  0  0  0  0  0  0
   42.2627  -39.1615    3.5193 C   0  0  0  0  0  0  0  0  0  0  0  0
   42.3452  -38.4469    2.3824 C   0  0  0  0  0  0  0  0  0  0  0  0
   41.1591  -38.0173    1.8380 C   0  0  0  0  0  0  0  0  0  0  0  0
   39.9930  -38.6211    2.9223 S   0  0  0  0  0  0  0  0  0  0  0  0
   39.0848  -40.3897    7.0195 C   0  0  0  0  0  0  0  0  0  0  0  0
   40.6015  -42.3451    8.7524 N   0  0  0  0  0  0  0  0  0  0  0  0
  1  2  1  0  0  0  0
  2  3  2  0  0  0  0
  3  4  1  0  0  0  0
  4  5  2  0  0  0  0
  5  6  1  0  0  0  0
  6  7  2  0  0  0  0
  7  8  1  0  0  0  0
  7  2  1  0  0  0  0
  8  9  1  0  0  0  0
  9 10  2  0  0  0  0
 10 11  1  0  0  0  0
 11 12  1  0  0  0  0
 12 25  2  0  0  0  0
 13 12  1  1  0  0  0
 13 14  1  0  0  0  0
 14 15  1  0  0  0  0
 15 16  1  0  0  0  0
 16 17  1  0  0  0  0
 17 18  1  0  0  0  0
 17 24  1  0  0  0  0
 18 19  1  0  0  0  0
 19 20  2  0  0  0  0
 20 21  1  0  0  0  0
 21 22  2  0  0  0  0
 22 23  1  0  0  0  0
 23 19  1  0  0  0  0
 24 13  1  0  0  0  0
 25  9  1  0  0  0  0
M  END
>  <CHROM.1>
120.50889294,102.80979180,100.61883623,-55.55848715,141.11499236,40.40959553
-41.83799646,7.03715645,-1.83138504,1.35070822,-0.35984610

>  <Name>
design_17

>  <RI>
0

>  <Rbt.Current_Directory>
/home/ziqiaoxu/icml18-jtnn/VAEdesign

>  <Rbt.Executable>
rbdock ($Id: //depot/dev/client3/rdock/2013.1/src/exe/rbdock.cxx#4 $)

>  <Rbt.Library>
libRbt.so (2013.1, Build901 2013/11/27)

>  <Rbt.Parameter_File>
/export/apps/rDock/src/rDock_2013.1_src//data/scripts/dock.prm

>  <Rbt.Receptor>
/home/ziqiaoxu/icml18-jtnn/VAEdesign/targets/RdRp-SARS-CoV-2/pocket_docking.prm

>  <SCORE>
-18.9394

>  <SCORE.INTER>
-19.2904

>  <SCORE.INTER.CONST>
1

>  <SCORE.INTER.POLAR>
-0.786735

>  <SCORE.INTER.REPUL>
0

>  <SCORE.INTER.ROT>
5

>  <SCORE.INTER.VDW>
-27.0155

>  <SCORE.INTER.norm>
-0.771615

>  <SCORE.INTRA>
0.350994

>  <SCORE.INTRA.DIHEDRAL>
-0.301698

>  <SCORE.INTRA.DIHEDRAL.0>
4.36062

>  <SCORE.INTRA.POLAR>
0

>  <SCORE.INTRA.POLAR.0>
0

>  <SCORE.INTRA.REPUL>
0

>  <SCORE.INTRA.REPUL.0>
0

>  <SCORE.INTRA.VDW>
0.501843

>  <SCORE.INTRA.VDW.0>
-2.56825

>  <SCORE.INTRA.norm>
0.0140398

>  <SCORE.RESTR>
0

>  <SCORE.RESTR.CAVITY>
0

>  <SCORE.RESTR.norm>
0

>  <SCORE.SYSTEM>
0

>  <SCORE.SYSTEM.CONST>
0

>  <SCORE.SYSTEM.DIHEDRAL>
0

>  <SCORE.SYSTEM.norm>
0

>  <SCORE.heavy>
25

>  <SCORE.norm>
-0.757575

$$$$
design_8
 OpenBabel05252019093D

 27 29  0  0  0  0  0  0  0  0999 V2000
   40.3287  -45.7069    8.5215 C   0  0  0  0  0  0  0  0  0  0  0  0
   39.9663  -46.9321    7.7741 C   0  0  0  0  0  0  0  0  0  0  0  0
   39.1645  -47.8701    8.4659 C   0  0  0  0  0  0  0  0  0  0  0  0
   38.7325  -49.0147    7.8527 C   0  0  0  0  0  0  0  0  0  0  0  0
   39.0863  -49.2507    6.5499 C   0  0  0  0  0  0  0  0  0  0  0  0
   39.8617  -48.3512    5.8718 C   0  0  0  0  0  0  0  0  0  0  0  0
   40.3162  -47.1635    6.4935 C   0  0  0  0  0  0  0  0  0  0  0  0
   41.1908  -46.2868    5.7177 C   0  0  0  0  0  0  0  0  0  0  0  0
   41.8642  -45.4043    6.3799 O   0  0  0  0  0  0  0  0  0  0  0  0
   41.3797  -46.2924    4.3304 N   0  0  0  0  0  0  0  0  0  0  0  0
   42.3172  -45.3264    3.7509 C   0  0  0  0  0  0  0  0  0  0  0  0
   41.5937  -44.3671    2.8603 C   0  0  0  0  0  0  0  0  0  0  0  0
   42.4648  -43.5667    1.9853 C   0  0  0  0  0  0  0  0  0  0  0  0
   43.7067  -43.8281    1.9200 O   0  0  0  0  0  0  0  0  0  0  0  0
   41.9098  -42.5185    1.2236 N   0  0  0  0  0  0  0  0  0  0  0  0
   42.6934  -41.7111    0.3611 C   0  0  0  0  0  0  0  0  0  0  0  0
   42.8042  -40.2927    0.6685 C   0  0  0  0  0  0  0  0  0  0  0  0
   43.9392  -39.6188    0.2444 C   0  0  0  0  0  0  0  0  0  0  0  0
   44.1200  -38.2853    0.5397 C   0  0  0  0  0  0  0  0  0  0  0  0
   43.1613  -37.6090    1.2654 C   0  0  0  0  0  0  0  0  0  0  0  0
   42.0166  -38.2503    1.7032 C   0  0  0  0  0  0  0  0  0  0  0  0
   41.0828  -37.5099    2.4553 N   0  0  0  0  0  0  0  0  0  0  0  0
   41.1884  -36.2591    2.8875 C   0  0  0  0  0  0  0  0  0  0  0  0
   40.0438  -35.9135    3.6074 C   0  0  0  0  0  0  0  0  0  0  0  0
   39.2634  -36.9988    3.5856 N   0  0  0  0  0  0  0  0  0  0  0  0
   39.8993  -37.9493    2.8907 C   0  0  0  0  0  0  0  0  0  0  0  0
   41.8695  -39.5925    1.3869 C   0  0  0  0  0  0  0  0  0  0  0  0
  1  2  1  0  0  0  0
  2  3  2  0  0  0  0
  3  4  1  0  0  0  0
  4  5  2  0  0  0  0
  5  6  1  0  0  0  0
  6  7  2  0  0  0  0
  7  8  1  0  0  0  0
  7  2  1  0  0  0  0
  8  9  2  0  0  0  0
  8 10  1  0  0  0  0
 10 11  1  0  0  0  0
 11 12  1  0  0  0  0
 12 13  1  0  0  0  0
 13 14  2  0  0  0  0
 13 15  1  0  0  0  0
 15 16  1  0  0  0  0
 16 17  1  0  0  0  0
 17 18  2  0  0  0  0
 18 19  1  0  0  0  0
 19 20  2  0  0  0  0
 20 21  1  0  0  0  0
 21 22  1  0  0  0  0
 21 27  2  0  0  0  0
 22 23  1  0  0  0  0
 23 24  2  0  0  0  0
 24 25  1  0  0  0  0
 25 26  2  0  0  0  0
 26 22  1  0  0  0  0
 27 17  1  0  0  0  0
M  END
>  <CHROM.1>
14.26268807,-115.60720167,-166.10438899,7.90365212,-116.24059802,153.04908313
-4.63056935,41.34837860,-42.69320759,3.75138984,1.84944951,-0.92423556,2.87399247

>  <Name>
design_8

>  <RI>
0

>  <Rbt.Current_Directory>
/home/ziqiaoxu/icml18-jtnn/VAEdesign

>  <Rbt.Executable>
rbdock ($Id: //depot/dev/client3/rdock/2013.1/src/exe/rbdock.cxx#4 $)

>  <Rbt.Library>
libRbt.so (2013.1, Build901 2013/11/27)

>  <Rbt.Parameter_File>
/export/apps/rDock/src/rDock_2013.1_src//data/scripts/dock.prm

>  <Rbt.Receptor>
/home/ziqiaoxu/icml18-jtnn/VAEdesign/targets/RdRp-SARS-CoV-2/pocket_docking.prm

>  <SCORE>
-26.9302

>  <SCORE.INTER>
-23.6245

>  <SCORE.INTER.CONST>
1

>  <SCORE.INTER.POLAR>
-2.65291

>  <SCORE.INTER.REPUL>
0

>  <SCORE.INTER.ROT>
7

>  <SCORE.INTER.VDW>
-27.0046

>  <SCORE.INTER.norm>
-0.874982

>  <SCORE.INTRA>
-3.30567

>  <SCORE.INTRA.DIHEDRAL>
-11.137

>  <SCORE.INTRA.DIHEDRAL.0>
17.1081

>  <SCORE.INTRA.POLAR>
0

>  <SCORE.INTRA.POLAR.0>
0

>  <SCORE.INTRA.REPUL>
0

>  <SCORE.INTRA.REPUL.0>
0

>  <SCORE.INTRA.VDW>
2.26283

>  <SCORE.INTRA.VDW.0>
-0.651813

>  <SCORE.INTRA.norm>
-0.122432

>  <SCORE.RESTR>
0

>  <SCORE.RESTR.CAVITY>
0

>  <SCORE.RESTR.norm>
0

>  <SCORE.SYSTEM>
0

>  <SCORE.SYSTEM.CONST>
0

>  <SCORE.SYSTEM.DIHEDRAL>
0

>  <SCORE.SYSTEM.norm>
0

>  <SCORE.heavy>
27

>  <SCORE.norm>
-0.997414

$$$$
design_19
 OpenBabel05252019093D

 26 28  0  0  0  0  0  0  0  0999 V2000
   46.0077  -44.1986   14.6561 C   0  0  0  0  0  0  0  0  0  0  0  0
   45.4711  -43.7448   13.3944 N   0  0  0  0  0  0  0  0  0  0  0  0
   45.1928  -42.3464   13.1904 C   0  0  0  0  0  0  0  0  0  0  0  0
   45.2281  -44.7019   12.3733 C   0  0  0  0  0  0  0  0  0  0  0  0
   45.4677  -45.9231   12.5422 O   0  0  0  0  0  0  0  0  0  0  0  0
   44.6781  -44.2506   11.0790 C   0  0  0  0  0  0  0  0  0  0  0  0
   45.6387  -43.5872   10.1653 C   0  0  0  0  0  0  0  0  0  0  0  0
   45.1200  -43.1191    8.8555 C   0  0  0  0  0  0  0  0  0  0  0  0
   44.8404  -44.1680    7.8645 C   0  0  0  0  0  0  0  0  0  0  0  0
   45.6436  -44.5117    6.9909 O   0  0  0  0  0  0  0  0  0  0  0  0
   43.5430  -44.8320    7.9248 C   0  0  0  0  0  0  0  0  0  0  0  0
   43.1676  -45.8110    7.0158 C   0  0  0  0  0  0  0  0  0  0  0  0
   41.9355  -46.4282    7.0888 C   0  0  0  0  0  0  0  0  0  0  0  0
   41.0215  -46.0898    8.0805 C   0  0  0  0  0  0  0  0  0  0  0  0
   41.3796  -45.1183    8.9919 C   0  0  0  0  0  0  0  0  0  0  0  0
   42.6083  -44.5194    8.8995 C   0  0  0  0  0  0  0  0  0  0  0  0
   40.2290  -44.9426    9.9444 C   0  0  0  0  0  0  0  0  0  0  0  0
   39.5369  -46.2819    9.8056 C   0  0  0  0  0  0  0  0  0  0  0  0
   39.6998  -46.5512    8.3957 N   0  0  0  0  0  0  0  0  0  0  0  0
   38.7920  -47.1454    7.4462 C   0  0  0  0  0  0  0  0  0  0  0  0
   38.0220  -46.0269    6.8128 C   0  0  0  0  0  0  0  0  0  0  0  0
   38.4925  -44.7458    6.7288 C   0  0  0  0  0  0  0  0  0  0  0  0
   37.7642  -43.7326    6.1404 C   0  0  0  0  0  0  0  0  0  0  0  0
   36.5110  -44.0141    5.6137 C   0  0  0  0  0  0  0  0  0  0  0  0
   36.0212  -45.2842    5.6859 C   0  0  0  0  0  0  0  0  0  0  0  0
   36.7728  -46.2827    6.2817 C   0  0  0  0  0  0  0  0  0  0  0  0
  1  2  1  0  0  0  0
  2  3  1  0  0  0  0
  2  4  1  0  0  0  0
  4  5  2  0  0  0  0
  4  6  1  0  0  0  0
  6  7  1  0  0  0  0
  7  8  1  0  0  0  0
  8  9  1  0  0  0  0
  9 10  2  0  0  0  0
  9 11  1  0  0  0  0
 11 12  2  0  0  0  0
 12 13  1  0  0  0  0
 13 14  2  0  0  0  0
 14 15  1  0  0  0  0
 15 16  2  0  0  0  0
 15 17  1  0  0  0  0
 16 11  1  0  0  0  0
 17 18  1  0  0  0  0
 18 19  1  0  0  0  0
 19 20  1  0  0  0  0
 19 14  1  0  0  0  0
 20 21  1  0  0  0  0
 21 22  2  0  0  0  0
 22 23  1  0  0  0  0
 23 24  2  0  0  0  0
 24 25  1  0  0  0  0
 25 26  2  0  0  0  0
 26 21  1  0  0  0  0
M  END
>  <CHROM.1>
76.62683682,-179.93230003,-73.50464186,-95.22711623,178.35802646,-88.05656751
25.07788059,41.98567105,-44.91901921,9.01997566,0.60160500,0.19103878,1.58296443

>  <Name>
design_19

>  <RI>
0

>  <Rbt.Current_Directory>
/home/ziqiaoxu/icml18-jtnn/VAEdesign

>  <Rbt.Executable>
rbdock ($Id: //depot/dev/client3/rdock/2013.1/src/exe/rbdock.cxx#4 $)

>  <Rbt.Library>
libRbt.so (2013.1, Build901 2013/11/27)

>  <Rbt.Parameter_File>
/export/apps/rDock/src/rDock_2013.1_src//data/scripts/dock.prm

>  <Rbt.Receptor>
/home/ziqiaoxu/icml18-jtnn/VAEdesign/targets/RdRp-SARS-CoV-2/pocket_docking.prm

>  <SCORE>
-15.9578

>  <SCORE.INTER>
-14.6042

>  <SCORE.INTER.CONST>
1

>  <SCORE.INTER.POLAR>
0

>  <SCORE.INTER.REPUL>
0

>  <SCORE.INTER.ROT>
7

>  <SCORE.INTER.VDW>
-27.0042

>  <SCORE.INTER.norm>
-0.561702

>  <SCORE.INTRA>
-1.35355

>  <SCORE.INTRA.DIHEDRAL>
1.51435

>  <SCORE.INTRA.DIHEDRAL.0>
5.34855

>  <SCORE.INTRA.POLAR>
0

>  <SCORE.INTRA.POLAR.0>
0

>  <SCORE.INTRA.REPUL>
0

>  <SCORE.INTRA.REPUL.0>
0

>  <SCORE.INTRA.VDW>
-2.11073

>  <SCORE.INTRA.VDW.0>
1.46542

>  <SCORE.INTRA.norm>
-0.0520597

>  <SCORE.RESTR>
0

>  <SCORE.RESTR.CAVITY>
0

>  <SCORE.RESTR.norm>
0

>  <SCORE.SYSTEM>
0

>  <SCORE.SYSTEM.CONST>
0

>  <SCORE.SYSTEM.DIHEDRAL>
0

>  <SCORE.SYSTEM.norm>
0

>  <SCORE.heavy>
26

>  <SCORE.norm>
-0.613762

$$$$
design_13
 OpenBabel05252019093D

 24 27  0  0  0  0  0  0  0  0999 V2000
   41.3425  -44.5778   10.5349 C   0  0  0  0  0  0  0  0  0  0  0  0
   40.7709  -45.5772    9.6016 C   0  0  0  0  0  0  0  0  0  0  0  0
   39.6066  -46.2321    9.7692 N   0  0  0  0  0  0  0  0  0  0  0  0
   39.4219  -47.0596    8.7118 C   0  0  0  0  0  0  0  0  0  0  0  0
   38.4246  -47.9470    8.3662 C   0  0  0  0  0  0  0  0  0  0  0  0
   38.5175  -48.6633    7.2016 C   0  0  0  0  0  0  0  0  0  0  0  0
   39.5945  -48.5232    6.3493 C   0  0  0  0  0  0  0  0  0  0  0  0
   40.6085  -47.6243    6.6956 C   0  0  0  0  0  0  0  0  0  0  0  0
   40.5055  -46.9128    7.8629 C   0  0  0  0  0  0  0  0  0  0  0  0
   41.3639  -45.9838    8.4076 C   0  0  0  0  0  0  0  0  0  0  0  0
   42.6358  -45.4875    7.8966 C   0  0  0  0  0  0  0  0  0  0  0  0
   43.4421  -44.6085    8.5189 N   0  0  0  0  0  0  0  0  0  0  0  0
   44.4949  -44.3792    7.7916 O   0  0  0  0  0  0  0  0  0  0  0  0
   44.4269  -45.0910    6.6703 C   0  0  0  0  0  0  0  0  0  0  0  0
   45.4335  -45.1068    5.5811 C   0  0  0  0  0  0  0  0  0  0  0  0
   44.8411  -45.6155    4.3647 N   0  0  0  0  0  0  0  0  0  0  0  0
   45.6322  -45.7390    3.1815 C   0  0  0  0  0  0  0  0  0  0  0  0
   46.8233  -45.4098    3.2012 O   0  0  0  0  0  0  0  0  0  0  0  0
   44.9815  -46.2645    1.9620 C   0  0  0  0  0  0  0  0  0  0  0  0
   43.8691  -45.3263    1.4755 C   0  0  0  0  0  0  0  0  0  0  0  0
   43.6064  -45.8909    0.0953 C   0  0  0  0  0  0  0  0  0  0  0  0
   44.9030  -46.5084   -0.3698 C   0  0  0  0  0  0  0  0  0  0  0  0
   45.8978  -46.2690    0.7725 C   0  0  0  0  0  0  0  0  0  0  0  0
   43.2719  -45.7764    6.7411 N   0  0  0  0  0  0  0  0  0  0  0  0
  1  2  1  0  0  0  0
  2  3  1  0  0  0  0
  3  4  1  0  0  0  0
  4  5  2  0  0  0  0
  5  6  1  0  0  0  0
  6  7  2  0  0  0  0
  7  8  1  0  0  0  0
  8  9  2  0  0  0  0
  9 10  1  0  0  0  0
  9  4  1  0  0  0  0
 10 11  1  0  0  0  0
 10  2  2  0  0  0  0
 11 12  2  0  0  0  0
 12 13  1  0  0  0  0
 13 14  1  0  0  0  0
 14 15  1  0  0  0  0
 14 24  2  0  0  0  0
 15 16  1  0  0  0  0
 16 17  1  0  0  0  0
 17 18  2  0  0  0  0
 17 19  1  0  0  0  0
 19 20  1  0  0  0  0
 20 21  1  0  0  0  0
 21 22  1  0  0  0  0
 22 23  1  0  0  0  0
 23 19  1  0  0  0  0
 24 11  1  0  0  0  0
M  END
>  <CHROM.1>
2.56852917,-160.82728707,-179.14872129,63.85368599,42.76799974,-46.06657906
5.83761658,-2.28220206,-0.50401452,-1.86882398

>  <Name>
design_13

>  <RI>
0

>  <Rbt.Current_Directory>
/home/ziqiaoxu/icml18-jtnn/VAEdesign

>  <Rbt.Executable>
rbdock ($Id: //depot/dev/client3/rdock/2013.1/src/exe/rbdock.cxx#4 $)

>  <Rbt.Library>
libRbt.so (2013.1, Build901 2013/11/27)

>  <Rbt.Parameter_File>
/export/apps/rDock/src/rDock_2013.1_src//data/scripts/dock.prm

>  <Rbt.Receptor>
/home/ziqiaoxu/icml18-jtnn/VAEdesign/targets/RdRp-SARS-CoV-2/pocket_docking.prm

>  <SCORE>
-26.1507

>  <SCORE.INTER>
-21.0699

>  <SCORE.INTER.CONST>
1

>  <SCORE.INTER.POLAR>
-1.0198

>  <SCORE.INTER.REPUL>
0

>  <SCORE.INTER.ROT>
4

>  <SCORE.INTER.VDW>
-27.0026

>  <SCORE.INTER.norm>
-0.877914

>  <SCORE.INTRA>
-5.08074

>  <SCORE.INTRA.DIHEDRAL>
-11.399

>  <SCORE.INTRA.DIHEDRAL.0>
14.5352

>  <SCORE.INTRA.POLAR>
0.0242865

>  <SCORE.INTRA.POLAR.0>
-0.0512081

>  <SCORE.INTRA.REPUL>
0

>  <SCORE.INTRA.REPUL.0>
0

>  <SCORE.INTRA.VDW>
0.536178

>  <SCORE.INTRA.VDW.0>
-1.06392

>  <SCORE.INTRA.norm>
-0.211697

>  <SCORE.RESTR>
0

>  <SCORE.RESTR.CAVITY>
0

>  <SCORE.RESTR.norm>
0

>  <SCORE.SYSTEM>
0

>  <SCORE.SYSTEM.CONST>
0

>  <SCORE.SYSTEM.DIHEDRAL>
0

>  <SCORE.SYSTEM.norm>
0

>  <SCORE.heavy>
24

>  <SCORE.norm>
-1.08961

$$$$
design_13
 OpenBabel05252019093D

 24 25  0  0  0  0  0  0  0  0999 V2000
   38.5492  -49.1507    6.7397 C   0  0  0  0  0  0  0  0  0  0  0  0
   39.0529  -48.1972    7.6780 N   0  0  0  0  0  0  0  0  0  0  0  0
   40.1783  -47.3854    7.4993 C   0  0  0  0  0  0  0  0  0  0  0  0
   40.8424  -47.4895    6.3963 O   0  0  0  0  0  0  0  0  0  0  0  0
   40.6858  -46.4153    8.4519 C   0  0  0  0  0  0  0  0  0  0  0  0
   39.9391  -46.0824    9.5722 C   0  0  0  0  0  0  0  0  0  0  0  0
   40.3929  -45.1863   10.4906 C   0  0  0  0  0  0  0  0  0  0  0  0
   41.6441  -44.5625   10.3341 C   0  0  0  0  0  0  0  0  0  0  0  0
   42.4057  -44.8628    9.2474 C   0  0  0  0  0  0  0  0  0  0  0  0
   43.7307  -44.2671    9.0007 C   0  0  0  0  0  0  0  0  0  0  0  0
   44.5381  -44.8755    8.0063 N   0  0  0  0  0  0  0  0  0  0  0  0
   44.3842  -44.7073    6.6355 C   0  0  0  0  0  0  0  0  0  0  0  0
   43.4628  -44.0114    6.1132 O   0  0  0  0  0  0  0  0  0  0  0  0
   45.2806  -45.3230    5.6960 N   0  0  0  0  0  0  0  0  0  0  0  0
   45.1770  -45.1534    4.2834 C   0  0  0  0  0  0  0  0  0  0  0  0
   46.1617  -45.9827    3.5542 C   0  0  0  0  0  0  0  0  0  0  0  0
   47.3598  -46.3869    4.0826 C   0  0  0  0  0  0  0  0  0  0  0  0
   48.2733  -47.1990    3.4026 C   0  0  0  0  0  0  0  0  0  0  0  0
   47.9537  -47.6144    2.1383 C   0  0  0  0  0  0  0  0  0  0  0  0
   46.7580  -47.2215    1.5909 C   0  0  0  0  0  0  0  0  0  0  0  0
   45.8835  -46.4313    2.2698 C   0  0  0  0  0  0  0  0  0  0  0  0
   44.3281  -45.9467    1.5424 S   0  0  0  0  0  0  0  0  0  0  0  0
   44.3494  -46.1763   -0.2531 C   0  0  0  0  0  0  0  0  0  0  0  0
   41.8942  -45.7961    8.3232 C   0  0  0  0  0  0  0  0  0  0  0  0
  1  2  1  0  0  0  0
  2  3  1  0  0  0  0
  3  4  2  0  0  0  0
  3  5  1  0  0  0  0
  5  6  2  0  0  0  0
  6  7  1  0  0  0  0
  7  8  2  0  0  0  0
  8  9  1  0  0  0  0
  9 10  1  0  0  0  0
  9 24  2  0  0  0  0
 10 11  1  0  0  0  0
 11 12  1  0  0  0  0
 12 13  2  0  0  0  0
 12 14  1  0  0  0  0
 14 15  1  0  0  0  0
 15 16  1  0  0  0  0
 16 17  2  0  0  0  0
 17 18  1  0  0  0  0
 18 19  2  0  0  0  0
 19 20  1  0  0  0  0
 20 21  2  0  0  0  0
 21 22  1  0  0  0  0
 21 16  1  0  0  0  0
 22 23  1  0  0  0  0
 24  5  1  0  0  0  0
M  END
>  <CHROM.1>
-9.70523704,166.40950627,78.22060650,-175.55776040,-26.71802613,162.69228609
43.47209442,-46.10285419,5.70254492,2.33955161,0.40371312,1.17474739

>  <Name>
design_13

>  <RI>
0

>  <Rbt.Current_Directory>
/home/ziqiaoxu/icml18-jtnn/VAEdesign

>  <Rbt.Executable>
rbdock ($Id: //depot/dev/client3/rdock/2013.1/src/exe/rbdock.cxx#4 $)

>  <Rbt.Library>
libRbt.so (2013.1, Build901 2013/11/27)

>  <Rbt.Parameter_File>
/export/apps/rDock/src/rDock_2013.1_src//data/scripts/dock.prm

>  <Rbt.Receptor>
/home/ziqiaoxu/icml18-jtnn/VAEdesign/targets/RdRp-SARS-CoV-2/pocket_docking.prm

>  <SCORE>
-20.5352

>  <SCORE.INTER>
-21.3908

>  <SCORE.INTER.CONST>
1

>  <SCORE.INTER.POLAR>
-1.70452

>  <SCORE.INTER.REPUL>
0.000367535

>  <SCORE.INTER.ROT>
6

>  <SCORE.INTER.VDW>
-26.9973

>  <SCORE.INTER.norm>
-0.891284

>  <SCORE.INTRA>
0.855574

>  <SCORE.INTRA.DIHEDRAL>
0.0129454

>  <SCORE.INTRA.DIHEDRAL.0>
6.15995

>  <SCORE.INTRA.POLAR>
0

>  <SCORE.INTRA.POLAR.0>
0

>  <SCORE.INTRA.REPUL>
0

>  <SCORE.INTRA.REPUL.0>
0

>  <SCORE.INTRA.VDW>
0.849101

>  <SCORE.INTRA.VDW.0>
-1.58375

>  <SCORE.INTRA.norm>
0.0356489

>  <SCORE.RESTR>
0

>  <SCORE.RESTR.CAVITY>
0

>  <SCORE.RESTR.norm>
0

>  <SCORE.SYSTEM>
0

>  <SCORE.SYSTEM.CONST>
0

>  <SCORE.SYSTEM.DIHEDRAL>
0

>  <SCORE.SYSTEM.norm>
0

>  <SCORE.heavy>
24

>  <SCORE.norm>
-0.855635

$$$$
design_5
 OpenBabel05252019093D

 23 24  0  0  0  0  0  0  0  0999 V2000
   43.1124  -46.9511   -0.6406 N   0  0  0  0  0  0  0  0  0  0  0  0
   44.0607  -46.3672   -0.3791 C   0  0  0  0  0  0  0  0  0  0  0  0
   45.2779  -45.6373   -0.0283 C   0  0  0  0  0  0  0  0  0  0  0  0
   45.7147  -45.9848    1.3540 C   0  0  0  0  0  0  0  0  0  0  0  0
   46.6039  -47.0082    1.5947 C   0  0  0  0  0  0  0  0  0  0  0  0
   47.0072  -47.3288    2.8727 C   0  0  0  0  0  0  0  0  0  0  0  0
   46.4988  -46.5944    3.9514 C   0  0  0  0  0  0  0  0  0  0  0  0
   45.6075  -45.5632    3.7549 C   0  0  0  0  0  0  0  0  0  0  0  0
   45.0705  -44.7909    4.8667 C   0  0  0  0  0  0  0  0  0  0  0  0
   44.4797  -43.7007    4.5583 O   0  0  0  0  0  0  0  0  0  0  0  0
   45.1671  -45.1723    6.2106 N   0  0  0  0  0  0  0  0  0  0  0  0
   44.6508  -44.4241    7.3247 C   0  0  0  0  0  0  0  0  0  0  0  0
   43.3811  -45.0025    7.8723 C   0  0  0  0  0  0  0  0  0  0  0  0
   43.0655  -44.6912    9.0184 O   0  0  0  0  0  0  0  0  0  0  0  0
   42.6283  -45.8577    7.0599 N   0  0  0  0  0  0  0  0  0  0  0  0
   41.4193  -46.4590    7.4479 C   0  0  0  0  0  0  0  0  0  0  0  0
   40.8699  -46.1173    8.6919 C   0  0  0  0  0  0  0  0  0  0  0  0
   39.7057  -46.6709    9.1607 C   0  0  0  0  0  0  0  0  0  0  0  0
   39.0168  -47.5979    8.4208 C   0  0  0  0  0  0  0  0  0  0  0  0
   39.5332  -47.9510    7.1978 C   0  0  0  0  0  0  0  0  0  0  0  0
   38.7055  -49.1211    6.2134 Cl  0  0  0  0  0  0  0  0  0  0  0  0
   40.7196  -47.3840    6.7260 C   0  0  0  0  0  0  0  0  0  0  0  0
   45.2376  -45.2869    2.4382 C   0  0  0  0  0  0  0  0  0  0  0  0
  1  2  3  0  0  0  0
  2  3  1  0  0  0  0
  3  4  1  0  0  0  0
  4  5  2  0  0  0  0
  5  6  1  0  0  0  0
  6  7  2  0  0  0  0
  7  8  1  0  0  0  0
  8  9  1  0  0  0  0
  8 23  2  0  0  0  0
  9 10  2  0  0  0  0
  9 11  1  0  0  0  0
 11 12  1  0  0  0  0
 12 13  1  0  0  0  0
 13 14  2  0  0  0  0
 13 15  1  0  0  0  0
 15 16  1  0  0  0  0
 16 17  2  0  0  0  0
 17 18  1  0  0  0  0
 18 19  2  0  0  0  0
 19 20  1  0  0  0  0
 20 21  1  0  0  0  0
 20 22  2  0  0  0  0
 22 16  1  0  0  0  0
 23  4  1  0  0  0  0
M  END
>  <CHROM.1>
91.79300987,166.11332732,103.37554468,159.87539824,4.67559327,43.07338381
-46.32034198,5.14402044,0.71963574,-0.51778248,-1.89050531

>  <Name>
design_5

>  <RI>
0

>  <Rbt.Current_Directory>
/home/ziqiaoxu/icml18-jtnn/VAEdesign

>  <Rbt.Executable>
rbdock ($Id: //depot/dev/client3/rdock/2013.1/src/exe/rbdock.cxx#4 $)

>  <Rbt.Library>
libRbt.so (2013.1, Build901 2013/11/27)

>  <Rbt.Parameter_File>
/export/apps/rDock/src/rDock_2013.1_src//data/scripts/dock.prm

>  <Rbt.Receptor>
/home/ziqiaoxu/icml18-jtnn/VAEdesign/targets/RdRp-SARS-CoV-2/pocket_docking.prm

>  <SCORE>
-19.27

>  <SCORE.INTER>
-19.6331

>  <SCORE.INTER.CONST>
1

>  <SCORE.INTER.POLAR>
-0.894427

>  <SCORE.INTER.REPUL>
0

>  <SCORE.INTER.ROT>
5

>  <SCORE.INTER.VDW>
-26.9921

>  <SCORE.INTER.norm>
-0.853613

>  <SCORE.INTRA>
0.363154

>  <SCORE.INTRA.DIHEDRAL>
-0.45556

>  <SCORE.INTRA.DIHEDRAL.0>
4.56497

>  <SCORE.INTRA.POLAR>
0

>  <SCORE.INTRA.POLAR.0>
0

>  <SCORE.INTRA.REPUL>
0

>  <SCORE.INTRA.REPUL.0>
0

>  <SCORE.INTRA.VDW>
0.590934

>  <SCORE.INTRA.VDW.0>
-0.956907

>  <SCORE.INTRA.norm>
0.0157893

>  <SCORE.RESTR>
0

>  <SCORE.RESTR.CAVITY>
0

>  <SCORE.RESTR.norm>
0

>  <SCORE.SYSTEM>
0

>  <SCORE.SYSTEM.CONST>
0

>  <SCORE.SYSTEM.DIHEDRAL>
0

>  <SCORE.SYSTEM.norm>
0

>  <SCORE.heavy>
23

>  <SCORE.norm>
-0.837824

$$$$
design_0
 OpenBabel05252019093D

 25 28  0  0  0  0  0  0  0  0999 V2000
   38.7315  -49.1197    6.4730 C   0  0  0  0  0  0  0  0  0  0  0  0
   39.2902  -48.0588    7.3521 C   0  0  0  0  0  0  0  0  0  0  0  0
   38.5746  -47.6549    8.4517 C   0  0  0  0  0  0  0  0  0  0  0  0
   39.0408  -46.6754    9.3061 C   0  0  0  0  0  0  0  0  0  0  0  0
   40.2713  -46.1148    9.0040 C   0  0  0  0  0  0  0  0  0  0  0  0
   41.0192  -46.4999    7.9023 C   0  0  0  0  0  0  0  0  0  0  0  0
   42.3234  -45.8844    7.6477 C   0  0  0  0  0  0  0  0  0  0  0  0
   43.1224  -46.0410    6.5821 N   0  0  0  0  0  0  0  0  0  0  0  0
   44.2447  -45.2951    6.7536 C   0  0  0  0  0  0  0  0  0  0  0  0
   45.4091  -45.2995    5.8317 C   0  0  0  0  0  0  0  0  0  0  0  0
   45.0204  -45.3544    4.4276 N   0  0  0  0  0  0  0  0  0  0  0  0
   43.8376  -44.7316    4.1427 C   0  0  0  0  0  0  0  0  0  0  0  0
   43.3932  -44.7568    2.8883 N   0  0  0  0  0  0  0  0  0  0  0  0
   44.0331  -45.3527    1.8906 C   0  0  0  0  0  0  0  0  0  0  0  0
   43.5595  -45.3768    0.6017 C   0  0  0  0  0  0  0  0  0  0  0  0
   44.2217  -46.0024   -0.4321 C   0  0  0  0  0  0  0  0  0  0  0  0
   45.4196  -46.6343   -0.1533 C   0  0  0  0  0  0  0  0  0  0  0  0
   45.9089  -46.6183    1.1387 C   0  0  0  0  0  0  0  0  0  0  0  0
   45.2283  -45.9856    2.1554 C   0  0  0  0  0  0  0  0  0  0  0  0
   45.7026  -45.9612    3.4809 C   0  0  0  0  0  0  0  0  0  0  0  0
   46.8050  -46.5562    3.6548 O   0  0  0  0  0  0  0  0  0  0  0  0
   44.0974  -44.6766    7.9552 C   0  0  0  0  0  0  0  0  0  0  0  0
   45.0050  -43.7172    8.6791 C   0  0  0  0  0  0  0  0  0  0  0  0
   42.9382  -45.0560    8.4566 O   0  0  0  0  0  0  0  0  0  0  0  0
   40.5130  -47.4819    7.0773 C   0  0  0  0  0  0  0  0  0  0  0  0
  1  2  1  0  0  0  0
  2  3  2  0  0  0  0
  3  4  1  0  0  0  0
  4  5  2  0  0  0  0
  5  6  1  0  0  0  0
  6  7  1  0  0  0  0
  6 25  2  0  0  0  0
  7  8  2  0  0  0  0
  8  9  1  0  0  0  0
  9 10  1  0  0  0  0
  9 22  2  0  0  0  0
 10 11  1  0  0  0  0
 11 12  1  0  0  0  0
 12 13  2  0  0  0  0
 13 14  1  0  0  0  0
 14 15  2  0  0  0  0
 15 16  1  0  0  0  0
 16 17  2  0  0  0  0
 17 18  1  0  0  0  0
 18 19  2  0  0  0  0
 19 20  1  0  0  0  0
 19 14  1  0  0  0  0
 20 21  2  0  0  0  0
 20 11  1  0  0  0  0
 22 23  1  0  0  0  0
 22 24  1  0  0  0  0
 24  7  1  0  0  0  0
 25  2  1  0  0  0  0
M  END
>  <CHROM.1>
-173.46165937,39.72414285,31.94171400,43.13539933,-46.03040032,5.28018967
2.27968488,0.46590752,1.34101919

>  <Name>
design_0

>  <RI>
0

>  <Rbt.Current_Directory>
/home/ziqiaoxu/icml18-jtnn/VAEdesign

>  <Rbt.Executable>
rbdock ($Id: //depot/dev/client3/rdock/2013.1/src/exe/rbdock.cxx#4 $)

>  <Rbt.Library>
libRbt.so (2013.1, Build901 2013/11/27)

>  <Rbt.Parameter_File>
/export/apps/rDock/src/rDock_2013.1_src//data/scripts/dock.prm

>  <Rbt.Receptor>
/home/ziqiaoxu/icml18-jtnn/VAEdesign/targets/RdRp-SARS-CoV-2/pocket_docking.prm

>  <SCORE>
-16.6117

>  <SCORE.INTER>
-18.5804

>  <SCORE.INTER.CONST>
1

>  <SCORE.INTER.POLAR>
0

>  <SCORE.INTER.REPUL>
0

>  <SCORE.INTER.ROT>
3

>  <SCORE.INTER.VDW>
-26.9804

>  <SCORE.INTER.norm>
-0.743216

>  <SCORE.INTRA>
1.96874

>  <SCORE.INTRA.DIHEDRAL>
0.121865

>  <SCORE.INTRA.DIHEDRAL.0>
3.40674

>  <SCORE.INTRA.POLAR>
0

>  <SCORE.INTRA.POLAR.0>
0

>  <SCORE.INTRA.REPUL>
0

>  <SCORE.INTRA.REPUL.0>
0

>  <SCORE.INTRA.VDW>
1.90781

>  <SCORE.INTRA.VDW.0>
-1.75316

>  <SCORE.INTRA.norm>
0.0787497

>  <SCORE.RESTR>
0

>  <SCORE.RESTR.CAVITY>
0

>  <SCORE.RESTR.norm>
0

>  <SCORE.SYSTEM>
0

>  <SCORE.SYSTEM.CONST>
0

>  <SCORE.SYSTEM.DIHEDRAL>
0

>  <SCORE.SYSTEM.norm>
0

>  <SCORE.heavy>
25

>  <SCORE.norm>
-0.664467

$$$$
design_16
 OpenBabel05252019093D

 22 24  0  0  0  0  0  0  0  0999 V2000
   41.1751  -44.6419   10.8147 C   0  0  0  0  0  0  0  0  0  0  0  0
   40.7648  -45.5043    9.6678 C   0  0  0  0  0  0  0  0  0  0  0  0
   41.5376  -45.6503    8.5576 C   0  0  0  0  0  0  0  0  0  0  0  0
   41.1110  -46.4595    7.5268 C   0  0  0  0  0  0  0  0  0  0  0  0
   39.9053  -47.1095    7.6376 C   0  0  0  0  0  0  0  0  0  0  0  0
   39.3200  -48.1484    6.3556 S   0  0  0  0  0  0  0  0  0  0  0  0
   39.2074  -49.5836    6.8315 O   0  0  0  0  0  0  0  0  0  0  0  0
   40.2965  -48.1674    5.2084 O   0  0  0  0  0  0  0  0  0  0  0  0
   37.7984  -47.6363    5.7703 N   0  0  0  0  0  0  0  0  0  0  0  0
   37.4190  -46.2666    5.8052 C   0  0  0  0  0  0  0  0  0  0  0  0
   36.1431  -45.8479    5.4457 C   0  0  0  0  0  0  0  0  0  0  0  0
   35.7273  -44.5375    5.4748 C   0  0  0  0  0  0  0  0  0  0  0  0
   36.6446  -43.5815    5.8905 C   0  0  0  0  0  0  0  0  0  0  0  0
   37.9139  -43.9676    6.2525 C   0  0  0  0  0  0  0  0  0  0  0  0
   38.3172  -45.2896    6.2177 C   0  0  0  0  0  0  0  0  0  0  0  0
   38.6595  -42.7188    6.6495 C   0  0  0  0  0  0  0  0  0  0  0  0
   37.6787  -41.6394    6.4669 C   0  0  0  0  0  0  0  0  0  0  0  0
   37.8908  -40.4110    6.6883 O   0  0  0  0  0  0  0  0  0  0  0  0
   36.4570  -42.1734    6.0055 N   0  0  0  0  0  0  0  0  0  0  0  0
   35.2420  -41.4248    5.7063 C   0  0  0  0  0  0  0  0  0  0  0  0
   39.1230  -46.9625    8.7603 C   0  0  0  0  0  0  0  0  0  0  0  0
   39.5561  -46.1535    9.7835 C   0  0  0  0  0  0  0  0  0  0  0  0
  1  2  1  0  0  0  0
  2  3  2  0  0  0  0
  3  4  1  0  0  0  0
  4  5  2  0  0  0  0
  5  6  1  0  0  0  0
  5 21  1  0  0  0  0
  6  7  2  0  0  0  0
  6  8  2  0  0  0  0
  6  9  1  0  0  0  0
  9 10  1  0  0  0  0
 10 11  2  0  0  0  0
 11 12  1  0  0  0  0
 12 13  2  0  0  0  0
 13 14  1  0  0  0  0
 14 15  2  0  0  0  0
 14 16  1  0  0  0  0
 15 10  1  0  0  0  0
 16 17  1  0  0  0  0
 17 18  2  0  0  0  0
 17 19  1  0  0  0  0
 19 20  1  0  0  0  0
 19 13  1  0  0  0  0
 21 22  2  0  0  0  0
 22  2  1  0  0  0  0
M  END
>  <CHROM.1>
116.27074208,29.36631011,-174.12905484,38.58980054,-45.36260157,6.92366984
-0.82783970,-0.75961435,0.32333111

>  <Name>
design_16

>  <RI>
0

>  <Rbt.Current_Directory>
/home/ziqiaoxu/icml18-jtnn/VAEdesign

>  <Rbt.Executable>
rbdock ($Id: //depot/dev/client3/rdock/2013.1/src/exe/rbdock.cxx#4 $)

>  <Rbt.Library>
libRbt.so (2013.1, Build901 2013/11/27)

>  <Rbt.Parameter_File>
/export/apps/rDock/src/rDock_2013.1_src//data/scripts/dock.prm

>  <Rbt.Receptor>
/home/ziqiaoxu/icml18-jtnn/VAEdesign/targets/RdRp-SARS-CoV-2/pocket_docking.prm

>  <SCORE>
-22.19

>  <SCORE.INTER>
-18.5718

>  <SCORE.INTER.CONST>
1

>  <SCORE.INTER.POLAR>
0

>  <SCORE.INTER.REPUL>
0

>  <SCORE.INTER.ROT>
3

>  <SCORE.INTER.VDW>
-26.9718

>  <SCORE.INTER.norm>
-0.844174

>  <SCORE.INTRA>
-3.61812

>  <SCORE.INTRA.DIHEDRAL>
-7.12539

>  <SCORE.INTRA.DIHEDRAL.0>
9.64518

>  <SCORE.INTRA.POLAR>
0

>  <SCORE.INTRA.POLAR.0>
0

>  <SCORE.INTRA.REPUL>
0

>  <SCORE.INTRA.REPUL.0>
0

>  <SCORE.INTRA.VDW>
-0.0554212

>  <SCORE.INTRA.VDW.0>
-1.59575

>  <SCORE.INTRA.norm>
-0.16446

>  <SCORE.RESTR>
0

>  <SCORE.RESTR.CAVITY>
0

>  <SCORE.RESTR.norm>
0

>  <SCORE.SYSTEM>
0

>  <SCORE.SYSTEM.CONST>
0

>  <SCORE.SYSTEM.DIHEDRAL>
0

>  <SCORE.SYSTEM.norm>
0

>  <SCORE.heavy>
22

>  <SCORE.norm>
-1.00863

$$$$
design_15
 OpenBabel05252019093D

 26 28  0  0  0  0  0  0  0  0999 V2000
   35.3943  -40.6876    5.8396 C   0  0  0  0  0  0  0  0  0  0  0  0
   35.2550  -42.1108    5.6341 N   0  0  0  0  0  0  0  0  0  0  0  0
   36.3126  -43.0169    5.8753 C   0  0  0  0  0  0  0  0  0  0  0  0
   37.4158  -42.5266    6.2847 O   0  0  0  0  0  0  0  0  0  0  0  0
   36.1984  -44.4801    5.6805 C   0  0  0  0  0  0  0  0  0  0  0  0
   37.5145  -45.1827    5.8062 C   0  0  0  0  0  0  0  0  0  0  0  0
   37.5520  -46.3777    6.5300 N   0  0  0  0  0  0  0  0  0  0  0  0
   37.4161  -46.3894    7.9222 C   0  0  0  0  0  0  0  0  0  0  0  0
   38.6484  -46.9003    8.6543 C   0  0  0  0  0  0  0  0  0  0  0  0
   39.7573  -47.0748    7.7322 N   0  0  0  0  0  0  0  0  0  0  0  0
   41.0353  -46.4759    7.9013 C   0  0  0  0  0  0  0  0  0  0  0  0
   41.8940  -46.7406    6.9899 O   0  0  0  0  0  0  0  0  0  0  0  0
   41.3627  -45.6220    9.0182 C   0  0  0  0  0  0  0  0  0  0  0  0
   40.6727  -45.5162   10.1861 C   0  0  0  0  0  0  0  0  0  0  0  0
   41.3226  -44.6163   10.9819 N   0  0  0  0  0  0  0  0  0  0  0  0
   42.3744  -44.1823   10.3277 N   0  0  0  0  0  0  0  0  0  0  0  0
   42.4537  -44.7739    9.0955 C   0  0  0  0  0  0  0  0  0  0  0  0
   43.4777  -44.5588    8.0890 C   0  0  0  0  0  0  0  0  0  0  0  0
   43.2357  -44.5685    6.7323 C   0  0  0  0  0  0  0  0  0  0  0  0
   44.2309  -44.3458    5.7957 C   0  0  0  0  0  0  0  0  0  0  0  0
   45.5386  -44.0981    6.2210 C   0  0  0  0  0  0  0  0  0  0  0  0
   45.7892  -44.0861    7.5654 C   0  0  0  0  0  0  0  0  0  0  0  0
   44.7798  -44.3117    8.4702 C   0  0  0  0  0  0  0  0  0  0  0  0
   45.1940  -44.2798   10.1852 Cl  0  0  0  0  0  0  0  0  0  0  0  0
   39.4570  -47.9258    6.5845 C   0  0  0  0  0  0  0  0  0  0  0  0
   38.1760  -47.4959    5.9149 C   0  0  0  0  0  0  0  0  0  0  0  0
  1  2  1  0  0  0  0
  2  3  1  0  0  0  0
  3  4  2  0  0  0  0
  3  5  1  0  0  0  0
  5  6  1  0  0  0  0
  6  7  1  0  0  0  0
  7  8  1  0  0  0  0
  8  9  1  0  0  0  0
  9 10  1  0  0  0  0
 10 11  1  0  0  0  0
 10 25  1  0  0  0  0
 11 12  2  0  0  0  0
 11 13  1  0  0  0  0
 13 14  2  0  0  0  0
 14 15  1  0  0  0  0
 15 16  1  0  0  0  0
 16 17  2  0  0  0  0
 17 18  1  0  0  0  0
 17 13  1  0  0  0  0
 18 19  2  0  0  0  0
 19 20  1  0  0  0  0
 20 21  2  0  0  0  0
 21 22  1  0  0  0  0
 22 23  2  0  0  0  0
 23 24  1  0  0  0  0
 23 18  1  0  0  0  0
 25 26  1  0  0  0  0
 26  7  1  0  0  0  0
M  END
>  <CHROM.1>
171.31034296,136.81318421,-71.34734207,16.63792082,35.46845608,40.63009117
-44.88619141,7.66753172,-3.00836287,0.29842466,2.90862780

>  <Name>
design_15

>  <RI>
0

>  <Rbt.Current_Directory>
/home/ziqiaoxu/icml18-jtnn/VAEdesign

>  <Rbt.Executable>
rbdock ($Id: //depot/dev/client3/rdock/2013.1/src/exe/rbdock.cxx#4 $)

>  <Rbt.Library>
libRbt.so (2013.1, Build901 2013/11/27)

>  <Rbt.Parameter_File>
/export/apps/rDock/src/rDock_2013.1_src//data/scripts/dock.prm

>  <Rbt.Receptor>
/home/ziqiaoxu/icml18-jtnn/VAEdesign/targets/RdRp-SARS-CoV-2/pocket_docking.prm

>  <SCORE>
-22.2724

>  <SCORE.INTER>
-20.8424

>  <SCORE.INTER.CONST>
1

>  <SCORE.INTER.POLAR>
-1.48314

>  <SCORE.INTER.REPUL>
0.153702

>  <SCORE.INTER.ROT>
5

>  <SCORE.INTER.VDW>
-26.9682

>  <SCORE.INTER.norm>
-0.801631

>  <SCORE.INTRA>
-1.43001

>  <SCORE.INTRA.DIHEDRAL>
-10.9495

>  <SCORE.INTRA.DIHEDRAL.0>
22.926

>  <SCORE.INTRA.POLAR>
0

>  <SCORE.INTRA.POLAR.0>
0

>  <SCORE.INTRA.REPUL>
0

>  <SCORE.INTRA.REPUL.0>
0

>  <SCORE.INTRA.VDW>
4.04472

>  <SCORE.INTRA.VDW.0>
-2.68527

>  <SCORE.INTRA.norm>
-0.0550004

>  <SCORE.RESTR>
0

>  <SCORE.RESTR.CAVITY>
0

>  <SCORE.RESTR.norm>
0

>  <SCORE.SYSTEM>
0

>  <SCORE.SYSTEM.CONST>
0

>  <SCORE.SYSTEM.DIHEDRAL>
0

>  <SCORE.SYSTEM.norm>
0

>  <SCORE.heavy>
26

>  <SCORE.norm>
-0.856632

$$$$
design_13
 OpenBabel05252019093D

 27 29  0  0  0  0  0  0  0  0999 V2000
   45.2403  -43.4226   10.0861 C   0  0  0  0  0  0  0  0  0  0  0  0
   45.6305  -43.7634    8.7189 C   0  0  0  0  0  0  0  0  0  0  0  0
   46.8298  -43.3494    8.2177 C   0  0  0  0  0  0  0  0  0  0  0  0
   47.2420  -43.6453    6.9360 C   0  0  0  0  0  0  0  0  0  0  0  0
   46.4229  -44.3776    6.1392 C   0  0  0  0  0  0  0  0  0  0  0  0
   46.7940  -44.7256    4.7539 C   0  0  0  0  0  0  0  0  0  0  0  0
   47.2699  -43.8147    4.0415 O   0  0  0  0  0  0  0  0  0  0  0  0
   46.6124  -46.0195    4.2858 N   0  0  0  0  0  0  0  0  0  0  0  0
   46.9057  -46.5149    2.9941 C   0  0  0  0  0  0  0  0  0  0  0  0
   48.0450  -47.1860    2.6486 C   0  0  0  0  0  0  0  0  0  0  0  0
   48.2306  -47.6555    1.3353 C   0  0  0  0  0  0  0  0  0  0  0  0
   47.2892  -47.4625    0.3573 C   0  0  0  0  0  0  0  0  0  0  0  0
   46.1225  -46.7817    0.6864 C   0  0  0  0  0  0  0  0  0  0  0  0
   45.0793  -46.5368   -0.2901 C   0  0  0  0  0  0  0  0  0  0  0  0
   44.1068  -45.5490   -0.0354 N   0  0  0  0  0  0  0  0  0  0  0  0
   45.0443  -47.1938   -1.3433 O   0  0  0  0  0  0  0  0  0  0  0  0
   45.9737  -46.3432    1.9570 C   0  0  0  0  0  0  0  0  0  0  0  0
   45.1918  -44.8012    6.6572 C   0  0  0  0  0  0  0  0  0  0  0  0
   44.7671  -44.5170    7.9258 C   0  0  0  0  0  0  0  0  0  0  0  0
   43.5299  -44.9548    8.4158 N   0  0  0  0  0  0  0  0  0  0  0  0
   42.5249  -45.7200    7.8117 C   0  0  0  0  0  0  0  0  0  0  0  0
   42.6178  -46.1457    6.6532 O   0  0  0  0  0  0  0  0  0  0  0  0
   41.2848  -46.0447    8.5818 C   0  0  0  0  0  0  0  0  0  0  0  0
   40.2569  -46.8277    8.1146 C   0  0  0  0  0  0  0  0  0  0  0  0
   39.3301  -46.8651    9.1317 C   0  0  0  0  0  0  0  0  0  0  0  0
   39.8377  -46.1021   10.1722 C   0  0  0  0  0  0  0  0  0  0  0  0
   40.9831  -45.6553    9.7768 O   0  0  0  0  0  0  0  0  0  0  0  0
  1  2  1  0  0  0  0
  2  3  2  0  0  0  0
  3  4  1  0  0  0  0
  4  5  2  0  0  0  0
  5  6  1  0  0  0  0
  5 18  1  0  0  0  0
  6  7  2  0  0  0  0
  6  8  1  0  0  0  0
  8  9  1  0  0  0  0
  9 10  2  0  0  0  0
 10 11  1  0  0  0  0
 11 12  2  0  0  0  0
 12 13  1  0  0  0  0
 13 14  1  0  0  0  0
 13 17  2  0  0  0  0
 14 15  1  0  0  0  0
 14 16  2  0  0  0  0
 17  9  1  0  0  0  0
 18 19  2  0  0  0  0
 19 20  1  0  0  0  0
 19  2  1  0  0  0  0
 20 21  1  0  0  0  0
 21 22  2  0  0  0  0
 21 23  1  0  0  0  0
 23 24  2  0  0  0  0
 24 25  1  0  0  0  0
 25 26  2  0  0  0  0
 26 27  1  0  0  0  0
 27 23  1  0  0  0  0
M  END
>  <CHROM.1>
-45.46961105,97.45127054,-162.50127779,-179.36589500,-177.37480632,44.74699789
-45.62022929,5.34145305,-2.08431853,-0.35825602,-1.91134455

>  <Name>
design_13

>  <RI>
0

>  <Rbt.Current_Directory>
/home/ziqiaoxu/icml18-jtnn/VAEdesign

>  <Rbt.Executable>
rbdock ($Id: //depot/dev/client3/rdock/2013.1/src/exe/rbdock.cxx#4 $)

>  <Rbt.Library>
libRbt.so (2013.1, Build901 2013/11/27)

>  <Rbt.Parameter_File>
/export/apps/rDock/src/rDock_2013.1_src//data/scripts/dock.prm

>  <Rbt.Receptor>
/home/ziqiaoxu/icml18-jtnn/VAEdesign/targets/RdRp-SARS-CoV-2/pocket_docking.prm

>  <SCORE>
-14.1995

>  <SCORE.INTER>
-22.1583

>  <SCORE.INTER.CONST>
1

>  <SCORE.INTER.POLAR>
-1.64681

>  <SCORE.INTER.REPUL>
0

>  <SCORE.INTER.ROT>
5

>  <SCORE.INTER.VDW>
-26.9591

>  <SCORE.INTER.norm>
-0.820677

>  <SCORE.INTRA>
7.9588

>  <SCORE.INTRA.DIHEDRAL>
18.2398

>  <SCORE.INTRA.DIHEDRAL.0>
2.10136

>  <SCORE.INTRA.POLAR>
0

>  <SCORE.INTRA.POLAR.0>
0

>  <SCORE.INTRA.REPUL>
0

>  <SCORE.INTRA.REPUL.0>
0

>  <SCORE.INTRA.VDW>
-1.16108

>  <SCORE.INTRA.VDW.0>
0.812911

>  <SCORE.INTRA.norm>
0.29477

>  <SCORE.RESTR>
0

>  <SCORE.RESTR.CAVITY>
0

>  <SCORE.RESTR.norm>
0

>  <SCORE.SYSTEM>
0

>  <SCORE.SYSTEM.CONST>
0

>  <SCORE.SYSTEM.DIHEDRAL>
0

>  <SCORE.SYSTEM.norm>
0

>  <SCORE.heavy>
27

>  <SCORE.norm>
-0.525907

$$$$
design_12
 OpenBabel05252019093D

 24 27  0  0  0  0  0  0  0  0999 V2000
   38.7290  -48.9762    6.6297 C   0  0  0  0  0  0  0  0  0  0  0  0
   39.3572  -47.9304    7.4755 C   0  0  0  0  0  0  0  0  0  0  0  0
   38.6707  -47.4999    8.5911 C   0  0  0  0  0  0  0  0  0  0  0  0
   39.2116  -46.5404    9.3958 C   0  0  0  0  0  0  0  0  0  0  0  0
   40.4564  -45.9918    9.0967 C   0  0  0  0  0  0  0  0  0  0  0  0
   41.1582  -46.4041    7.9924 C   0  0  0  0  0  0  0  0  0  0  0  0
   42.4642  -45.8366    7.6680 C   0  0  0  0  0  0  0  0  0  0  0  0
   43.2142  -46.0713    6.5749 N   0  0  0  0  0  0  0  0  0  0  0  0
   44.3531  -45.3638    6.6359 C   0  0  0  0  0  0  0  0  0  0  0  0
   45.4269  -45.3597    5.6210 C   0  0  0  0  0  0  0  0  0  0  0  0
   44.9185  -45.4688    4.2668 N   0  0  0  0  0  0  0  0  0  0  0  0
   43.6602  -45.0863    3.9597 C   0  0  0  0  0  0  0  0  0  0  0  0
   43.1667  -45.1777    2.7117 N   0  0  0  0  0  0  0  0  0  0  0  0
   43.8852  -45.6546    1.6804 C   0  0  0  0  0  0  0  0  0  0  0  0
   43.3853  -45.7513    0.3978 C   0  0  0  0  0  0  0  0  0  0  0  0
   44.1527  -46.2478   -0.6442 C   0  0  0  0  0  0  0  0  0  0  0  0
   45.4400  -46.6471   -0.3671 C   0  0  0  0  0  0  0  0  0  0  0  0
   45.9463  -46.5501    0.9273 C   0  0  0  0  0  0  0  0  0  0  0  0
   45.1865  -46.0572    1.9653 C   0  0  0  0  0  0  0  0  0  0  0  0
   45.6680  -45.9515    3.2592 C   0  0  0  0  0  0  0  0  0  0  0  0
   46.8503  -46.3297    3.4596 O   0  0  0  0  0  0  0  0  0  0  0  0
   44.2938  -44.6661    7.8212 C   0  0  0  0  0  0  0  0  0  0  0  0
   43.1564  -44.9869    8.3842 O   0  0  0  0  0  0  0  0  0  0  0  0
   40.5890  -47.3747    7.1963 C   0  0  0  0  0  0  0  0  0  0  0  0
  1  2  1  0  0  0  0
  2  3  2  0  0  0  0
  3  4  1  0  0  0  0
  4  5  2  0  0  0  0
  5  6  1  0  0  0  0
  6  7  1  0  0  0  0
  6 24  2  0  0  0  0
  7  8  2  0  0  0  0
  8  9  1  0  0  0  0
  9 10  1  0  0  0  0
  9 22  2  0  0  0  0
 10 11  1  0  0  0  0
 11 12  1  0  0  0  0
 12 13  2  0  0  0  0
 13 14  1  0  0  0  0
 14 15  2  0  0  0  0
 15 16  1  0  0  0  0
 16 17  2  0  0  0  0
 17 18  1  0  0  0  0
 18 19  2  0  0  0  0
 19 20  1  0  0  0  0
 19 14  1  0  0  0  0
 20 21  2  0  0  0  0
 20 11  1  0  0  0  0
 22 23  1  0  0  0  0
 23  7  1  0  0  0  0
 24  2  1  0  0  0  0
M  END
>  <CHROM.1>
-174.69785233,35.72631628,24.16259510,43.07696356,-46.16364164,5.04850261
2.23932696,0.40913887,1.38299243

>  <Name>
design_12

>  <RI>
0

>  <Rbt.Current_Directory>
/home/ziqiaoxu/icml18-jtnn/VAEdesign

>  <Rbt.Executable>
rbdock ($Id: //depot/dev/client3/rdock/2013.1/src/exe/rbdock.cxx#4 $)

>  <Rbt.Library>
libRbt.so (2013.1, Build901 2013/11/27)

>  <Rbt.Parameter_File>
/export/apps/rDock/src/rDock_2013.1_src//data/scripts/dock.prm

>  <Rbt.Receptor>
/home/ziqiaoxu/icml18-jtnn/VAEdesign/targets/RdRp-SARS-CoV-2/pocket_docking.prm

>  <SCORE>
-17.3836

>  <SCORE.INTER>
-18.5583

>  <SCORE.INTER.CONST>
1

>  <SCORE.INTER.POLAR>
0

>  <SCORE.INTER.REPUL>
0

>  <SCORE.INTER.ROT>
3

>  <SCORE.INTER.VDW>
-26.9583

>  <SCORE.INTER.norm>
-0.773263

>  <SCORE.INTRA>
1.1747

>  <SCORE.INTRA.DIHEDRAL>
-0.215618

>  <SCORE.INTRA.DIHEDRAL.0>
3.74056

>  <SCORE.INTRA.POLAR>
0

>  <SCORE.INTRA.POLAR.0>
0

>  <SCORE.INTRA.REPUL>
0

>  <SCORE.INTRA.REPUL.0>
0

>  <SCORE.INTRA.VDW>
1.28251

>  <SCORE.INTRA.VDW.0>
-1.50858

>  <SCORE.INTRA.norm>
0.0489458

>  <SCORE.RESTR>
0

>  <SCORE.RESTR.CAVITY>
0

>  <SCORE.RESTR.norm>
0

>  <SCORE.SYSTEM>
0

>  <SCORE.SYSTEM.CONST>
0

>  <SCORE.SYSTEM.DIHEDRAL>
0

>  <SCORE.SYSTEM.norm>
0

>  <SCORE.heavy>
24

>  <SCORE.norm>
-0.724317

$$$$
design_4
 OpenBabel05252019093D

 23 25  0  0  0  0  0  0  0  0999 V2000
   38.0578  -47.2077    6.0659 C   0  0  0  0  0  0  0  0  0  0  0  0
   39.2614  -47.9326    6.6117 C   0  0  0  0  0  0  0  0  0  0  0  0
   38.8325  -49.2298    7.2641 C   0  0  0  0  0  0  0  0  0  0  0  0
   39.8849  -47.0551    7.6703 C   0  0  0  0  0  0  0  0  0  0  0  0
   41.0623  -46.4587    7.6273 N   0  0  0  0  0  0  0  0  0  0  0  0
   41.4601  -45.7326    8.6229 C   0  0  0  0  0  0  0  0  0  0  0  0
   42.7781  -45.0352    8.6320 C   0  0  0  0  0  0  0  0  0  0  0  0
   43.0745  -44.2601    9.5722 O   0  0  0  0  0  0  0  0  0  0  0  0
   43.6638  -45.2725    7.5669 N   0  0  0  0  0  0  0  0  0  0  0  0
   44.9450  -44.6249    7.5195 C   0  0  0  0  0  0  0  0  0  0  0  0
   45.3763  -44.4563    6.0823 C   0  0  0  0  0  0  0  0  0  0  0  0
   45.0088  -45.6389    5.4025 O   0  0  0  0  0  0  0  0  0  0  0  0
   45.2536  -45.8362    4.0503 C   0  0  0  0  0  0  0  0  0  0  0  0
   46.4677  -46.3244    3.6160 C   0  0  0  0  0  0  0  0  0  0  0  0
   46.7478  -46.5334    2.2829 C   0  0  0  0  0  0  0  0  0  0  0  0
   45.7972  -46.2552    1.2904 C   0  0  0  0  0  0  0  0  0  0  0  0
   44.5896  -45.7693    1.7302 C   0  0  0  0  0  0  0  0  0  0  0  0
   44.3161  -45.5619    3.0747 C   0  0  0  0  0  0  0  0  0  0  0  0
   43.7076  -45.5387    0.5291 C   0  0  0  0  0  0  0  0  0  0  0  0
   44.3541  -46.4074   -0.5383 C   0  0  0  0  0  0  0  0  0  0  0  0
   45.8155  -46.3729   -0.1877 C   0  0  0  0  0  0  0  0  0  0  0  0
   40.6071  -45.6222    9.6986 C   0  0  0  0  0  0  0  0  0  0  0  0
   39.2858  -46.5802    9.1912 S   0  0  0  0  0  0  0  0  0  0  0  0
  1  2  1  0  0  0  0
  2  3  1  0  0  0  0
  2  4  1  0  0  0  0
  4  5  2  0  0  0  0
  5  6  1  0  0  0  0
  6  7  1  0  0  0  0
  6 22  2  0  0  0  0
  7  8  2  0  0  0  0
  7  9  1  0  0  0  0
  9 10  1  0  0  0  0
 10 11  1  0  0  0  0
 11 12  1  0  0  0  0
 12 13  1  0  0  0  0
 13 14  2  0  0  0  0
 14 15  1  0  0  0  0
 15 16  2  0  0  0  0
 16 17  1  0  0  0  0
 17 18  2  0  0  0  0
 17 19  1  0  0  0  0
 18 13  1  0  0  0  0
 19 20  1  0  0  0  0
 20 21  1  0  0  0  0
 21 16  1  0  0  0  0
 22 23  1  0  0  0  0
 23  4  1  0  0  0  0
M  END
>  <CHROM.1>
-113.20981234,174.42358750,-151.37635403,-39.90314904,-179.98933711,85.33399070
42.82235625,-46.10077944,5.61621042,2.29257814,0.40958634,1.31086960

>  <Name>
design_4

>  <RI>
0

>  <Rbt.Current_Directory>
/home/ziqiaoxu/icml18-jtnn/VAEdesign

>  <Rbt.Executable>
rbdock ($Id: //depot/dev/client3/rdock/2013.1/src/exe/rbdock.cxx#4 $)

>  <Rbt.Library>
libRbt.so (2013.1, Build901 2013/11/27)

>  <Rbt.Parameter_File>
/export/apps/rDock/src/rDock_2013.1_src//data/scripts/dock.prm

>  <Rbt.Receptor>
/home/ziqiaoxu/icml18-jtnn/VAEdesign/targets/RdRp-SARS-CoV-2/pocket_docking.prm

>  <SCORE>
-13.4145

>  <SCORE.INTER>
-15.5572

>  <SCORE.INTER.CONST>
1

>  <SCORE.INTER.POLAR>
0

>  <SCORE.INTER.REPUL>
0

>  <SCORE.INTER.ROT>
6

>  <SCORE.INTER.VDW>
-26.9572

>  <SCORE.INTER.norm>
-0.676402

>  <SCORE.INTRA>
2.14271

>  <SCORE.INTRA.DIHEDRAL>
6.26805

>  <SCORE.INTRA.DIHEDRAL.0>
2.25214

>  <SCORE.INTRA.POLAR>
-0.0245377

>  <SCORE.INTRA.POLAR.0>
0

>  <SCORE.INTRA.REPUL>
0

>  <SCORE.INTRA.REPUL.0>
0

>  <SCORE.INTRA.VDW>
-0.90788

>  <SCORE.INTRA.VDW.0>
-0.0869183

>  <SCORE.INTRA.norm>
0.0931615

>  <SCORE.RESTR>
0

>  <SCORE.RESTR.CAVITY>
0

>  <SCORE.RESTR.norm>
0

>  <SCORE.SYSTEM>
0

>  <SCORE.SYSTEM.CONST>
0

>  <SCORE.SYSTEM.DIHEDRAL>
0

>  <SCORE.SYSTEM.norm>
0

>  <SCORE.heavy>
23

>  <SCORE.norm>
-0.58324

$$$$
design_9
 OpenBabel05252019093D

 23 25  0  0  0  0  0  0  0  0999 V2000
   41.3922  -44.5377   10.7630 C   0  0  0  0  0  0  0  0  0  0  0  0
   40.8300  -45.4279    9.7177 C   0  0  0  0  0  0  0  0  0  0  0  0
   41.5624  -45.6181    8.5706 C   0  0  0  0  0  0  0  0  0  0  0  0
   41.0662  -46.4518    7.5588 C   0  0  0  0  0  0  0  0  0  0  0  0
   39.8540  -47.0842    7.6973 C   0  0  0  0  0  0  0  0  0  0  0  0
   39.2986  -48.1090    6.3943 S   0  0  0  0  0  0  0  0  0  0  0  0
   40.3713  -48.1919    5.3393 O   0  0  0  0  0  0  0  0  0  0  0  0
   39.1447  -49.4962    6.9559 O   0  0  0  0  0  0  0  0  0  0  0  0
   37.8108  -47.5830    5.7575 N   0  0  0  0  0  0  0  0  0  0  0  0
   37.3641  -46.2366    5.7963 C   0  0  0  0  0  0  0  0  0  0  0  0
   36.1103  -45.8495    5.3868 C   0  0  0  0  0  0  0  0  0  0  0  0
   35.6939  -44.5361    5.4320 C   0  0  0  0  0  0  0  0  0  0  0  0
   36.5611  -43.5566    5.9061 C   0  0  0  0  0  0  0  0  0  0  0  0
   37.8264  -43.9095    6.3252 C   0  0  0  0  0  0  0  0  0  0  0  0
   38.2031  -45.2470    6.2615 C   0  0  0  0  0  0  0  0  0  0  0  0
   38.4919  -42.8132    6.7417 N   0  0  0  0  0  0  0  0  0  0  0  0
   39.8593  -42.7693    7.2597 C   0  0  0  0  0  0  0  0  0  0  0  0
   37.6384  -41.7900    6.5792 C   0  0  0  0  0  0  0  0  0  0  0  0
   37.8764  -40.5697    6.8549 O   0  0  0  0  0  0  0  0  0  0  0  0
   36.4762  -42.2371    6.0763 N   0  0  0  0  0  0  0  0  0  0  0  0
   35.2836  -41.4434    5.7518 C   0  0  0  0  0  0  0  0  0  0  0  0
   39.1506  -46.8722    8.8536 C   0  0  0  0  0  0  0  0  0  0  0  0
   39.6152  -46.0536    9.8713 C   0  0  0  0  0  0  0  0  0  0  0  0
  1  2  1  0  0  0  0
  2  3  2  0  0  0  0
  3  4  1  0  0  0  0
  4  5  2  0  0  0  0
  5  6  1  0  0  0  0
  5 22  1  0  0  0  0
  6  7  2  0  0  0  0
  6  8  2  0  0  0  0
  6  9  1  0  0  0  0
  9 10  1  0  0  0  0
 10 11  2  0  0  0  0
 11 12  1  0  0  0  0
 12 13  2  0  0  0  0
 13 14  1  0  0  0  0
 14 15  2  0  0  0  0
 14 16  1  0  0  0  0
 15 10  1  0  0  0  0
 16 17  1  0  0  0  0
 16 18  1  0  0  0  0
 18 19  2  0  0  0  0
 18 20  1  0  0  0  0
 20 21  1  0  0  0  0
 20 13  1  0  0  0  0
 22 23  2  0  0  0  0
 23  2  1  0  0  0  0
M  END
>  <CHROM.1>
4.44837082,26.83664829,-173.92810358,38.63773008,-45.23328008,6.98643967
-0.86386471,-0.72436891,0.28216067

>  <Name>
design_9

>  <RI>
0

>  <Rbt.Current_Directory>
/home/ziqiaoxu/icml18-jtnn/VAEdesign

>  <Rbt.Executable>
rbdock ($Id: //depot/dev/client3/rdock/2013.1/src/exe/rbdock.cxx#4 $)

>  <Rbt.Library>
libRbt.so (2013.1, Build901 2013/11/27)

>  <Rbt.Parameter_File>
/export/apps/rDock/src/rDock_2013.1_src//data/scripts/dock.prm

>  <Rbt.Receptor>
/home/ziqiaoxu/icml18-jtnn/VAEdesign/targets/RdRp-SARS-CoV-2/pocket_docking.prm

>  <SCORE>
-21.9422

>  <SCORE.INTER>
-18.5566

>  <SCORE.INTER.CONST>
1

>  <SCORE.INTER.POLAR>
-0.00018227

>  <SCORE.INTER.REPUL>
0

>  <SCORE.INTER.ROT>
3

>  <SCORE.INTER.VDW>
-26.956

>  <SCORE.INTER.norm>
-0.806809

>  <SCORE.INTRA>
-3.38562

>  <SCORE.INTRA.DIHEDRAL>
-6.25779

>  <SCORE.INTRA.DIHEDRAL.0>
8.8008

>  <SCORE.INTRA.POLAR>
0

>  <SCORE.INTRA.POLAR.0>
0

>  <SCORE.INTRA.REPUL>
0

>  <SCORE.INTRA.REPUL.0>
0

>  <SCORE.INTRA.VDW>
-0.256724

>  <SCORE.INTRA.VDW.0>
-2.12242

>  <SCORE.INTRA.norm>
-0.147201

>  <SCORE.RESTR>
0

>  <SCORE.RESTR.CAVITY>
0

>  <SCORE.RESTR.norm>
0

>  <SCORE.SYSTEM>
0

>  <SCORE.SYSTEM.CONST>
0

>  <SCORE.SYSTEM.DIHEDRAL>
0

>  <SCORE.SYSTEM.norm>
0

>  <SCORE.heavy>
23

>  <SCORE.norm>
-0.95401

$$$$
design_11
 OpenBabel05252019093D

 25 26  0  0  0  0  0  0  0  0999 V2000
   41.7440  -39.3960    1.1298 C   0  0  0  0  0  0  0  0  0  0  0  0
   40.6889  -38.9443    1.9957 N   0  0  0  0  0  0  0  0  0  0  0  0
   40.6427  -37.6194    2.4713 C   0  0  0  0  0  0  0  0  0  0  0  0
   41.5283  -36.7850    2.1514 O   0  0  0  0  0  0  0  0  0  0  0  0
   39.5495  -37.1432    3.3712 C   0  0  0  0  0  0  0  0  0  0  0  0
   39.6961  -37.6654    4.7375 C   0  0  0  0  0  0  0  0  0  0  0  0
   40.0970  -36.8867    5.7963 C   0  0  0  0  0  0  0  0  0  0  0  0
   40.2324  -37.3983    7.0943 C   0  0  0  0  0  0  0  0  0  0  0  0
   39.9674  -38.7180    7.3736 C   0  0  0  0  0  0  0  0  0  0  0  0
   40.0639  -39.2901    8.6633 N   0  0  0  0  0  0  0  0  0  0  0  0
   39.7106  -40.5925    9.0475 C   0  0  0  0  0  0  0  0  0  0  0  0
   39.2594  -41.4378    8.2587 O   0  0  0  0  0  0  0  0  0  0  0  0
   39.8670  -41.0005   10.4175 N   0  0  0  0  0  0  0  0  0  0  0  0
   39.5195  -42.3184   10.8529 C   0  0  0  0  0  0  0  0  0  0  0  0
   40.0757  -43.3237    9.8741 C   0  0  0  0  0  0  0  0  0  0  0  0
   41.0948  -43.0142    9.2392 O   0  0  0  0  0  0  0  0  0  0  0  0
   39.4160  -44.5444    9.7355 N   0  0  0  0  0  0  0  0  0  0  0  0
   39.7787  -45.6054    8.8856 C   0  0  0  0  0  0  0  0  0  0  0  0
   40.8755  -45.6669    8.0925 C   0  0  0  0  0  0  0  0  0  0  0  0
   41.1559  -46.7711    7.2546 C   0  0  0  0  0  0  0  0  0  0  0  0
   40.2607  -47.8170    7.2628 C   0  0  0  0  0  0  0  0  0  0  0  0
   39.1456  -47.8051    8.0402 C   0  0  0  0  0  0  0  0  0  0  0  0
   38.9145  -46.7162    8.8349 C   0  0  0  0  0  0  0  0  0  0  0  0
   39.5577  -39.5095    6.2853 C   0  0  0  0  0  0  0  0  0  0  0  0
   39.4327  -38.9865    5.0240 C   0  0  0  0  0  0  0  0  0  0  0  0
  1  2  1  0  0  0  0
  2  3  1  0  0  0  0
  3  4  2  0  0  0  0
  3  5  1  0  0  0  0
  5  6  1  0  0  0  0
  6  7  2  0  0  0  0
  7  8  1  0  0  0  0
  8  9  2  0  0  0  0
  9 10  1  0  0  0  0
  9 24  1  0  0  0  0
 10 11  1  0  0  0  0
 11 12  2  0  0  0  0
 11 13  1  0  0  0  0
 13 14  1  0  0  0  0
 14 15  1  0  0  0  0
 15 16  2  0  0  0  0
 15 17  1  0  0  0  0
 17 18  1  0  0  0  0
 18 19  2  0  0  0  0
 19 20  1  0  0  0  0
 20 21  2  0  0  0  0
 21 22  1  0  0  0  0
 22 23  2  0  0  0  0
 23 18  1  0  0  0  0
 24 25  2  0  0  0  0
 25  6  1  0  0  0  0
M  END
>  <CHROM.1>
73.74352892,107.03649598,174.50698234,45.86195881,27.81218943,3.61487113
40.10913810,-41.35269202,6.85733031,-1.18497530,-1.40158965,2.92565503

>  <Name>
design_11

>  <RI>
0

>  <Rbt.Current_Directory>
/home/ziqiaoxu/icml18-jtnn/VAEdesign

>  <Rbt.Executable>
rbdock ($Id: //depot/dev/client3/rdock/2013.1/src/exe/rbdock.cxx#4 $)

>  <Rbt.Library>
libRbt.so (2013.1, Build901 2013/11/27)

>  <Rbt.Parameter_File>
/export/apps/rDock/src/rDock_2013.1_src//data/scripts/dock.prm

>  <Rbt.Receptor>
/home/ziqiaoxu/icml18-jtnn/VAEdesign/targets/RdRp-SARS-CoV-2/pocket_docking.prm

>  <SCORE>
-23.6616

>  <SCORE.INTER>
-23.6961

>  <SCORE.INTER.CONST>
1

>  <SCORE.INTER.POLAR>
-2.39585

>  <SCORE.INTER.REPUL>
0

>  <SCORE.INTER.ROT>
6

>  <SCORE.INTER.VDW>
-26.9502

>  <SCORE.INTER.norm>
-0.947842

>  <SCORE.INTRA>
-0.450214

>  <SCORE.INTRA.DIHEDRAL>
-1.31001

>  <SCORE.INTRA.DIHEDRAL.0>
6.05749

>  <SCORE.INTRA.POLAR>
0

>  <SCORE.INTRA.POLAR.0>
0

>  <SCORE.INTRA.REPUL>
0

>  <SCORE.INTRA.REPUL.0>
0

>  <SCORE.INTRA.VDW>
0.204792

>  <SCORE.INTRA.VDW.0>
-0.650838

>  <SCORE.INTRA.norm>
-0.0180086

>  <SCORE.RESTR>
0.484647

>  <SCORE.RESTR.CAVITY>
0.484647

>  <SCORE.RESTR.norm>
0.0193859

>  <SCORE.SYSTEM>
0

>  <SCORE.SYSTEM.CONST>
0

>  <SCORE.SYSTEM.DIHEDRAL>
0

>  <SCORE.SYSTEM.norm>
0

>  <SCORE.heavy>
25

>  <SCORE.norm>
-0.946465

$$$$
design_11
 OpenBabel05252019093D

 25 27  0  0  0  0  0  0  0  0999 V2000
   47.1460  -47.2540    2.9361 C   0  0  0  0  0  0  0  0  0  0  0  0
   46.3663  -46.0947    2.7180 O   0  0  0  0  0  0  0  0  0  0  0  0
   45.3488  -46.0807    1.7773 C   0  0  0  0  0  0  0  0  0  0  0  0
   45.6337  -46.4599    0.4918 C   0  0  0  0  0  0  0  0  0  0  0  0
   44.6630  -46.4643   -0.4788 C   0  0  0  0  0  0  0  0  0  0  0  0
   43.4030  -46.0768   -0.1164 C   0  0  0  0  0  0  0  0  0  0  0  0
   43.1194  -45.6917    1.1948 C   0  0  0  0  0  0  0  0  0  0  0  0
   44.0608  -45.6760    2.1833 C   0  0  0  0  0  0  0  0  0  0  0  0
   43.8846  -45.3097    3.5221 N   0  0  0  0  0  0  0  0  0  0  0  0
   44.7013  -44.4259    4.2402 C   0  0  0  0  0  0  0  0  0  0  0  0
   45.6948  -43.8457    3.7863 O   0  0  0  0  0  0  0  0  0  0  0  0
   44.3766  -44.1282    5.6953 C   0  0  0  0  0  0  0  0  0  0  0  0
   44.5866  -45.3566    6.5362 C   0  0  0  0  0  0  0  0  0  0  0  0
   43.3257  -45.8109    7.0494 N   0  0  0  0  0  0  0  0  0  0  0  0
   42.7235  -45.3573    8.2500 C   0  0  0  0  0  0  0  0  0  0  0  0
   43.3199  -44.4988    8.9353 O   0  0  0  0  0  0  0  0  0  0  0  0
   41.4328  -45.8780    8.6835 C   0  0  0  0  0  0  0  0  0  0  0  0
   40.8180  -45.6157    9.8439 N   0  0  0  0  0  0  0  0  0  0  0  0
   39.6615  -46.2553    9.9090 N   0  0  0  0  0  0  0  0  0  0  0  0
   39.4618  -46.9744    8.7823 C   0  0  0  0  0  0  0  0  0  0  0  0
   38.4426  -47.7950    8.3591 C   0  0  0  0  0  0  0  0  0  0  0  0
   38.5530  -48.3910    7.1245 C   0  0  0  0  0  0  0  0  0  0  0  0
   39.6715  -48.1711    6.3163 C   0  0  0  0  0  0  0  0  0  0  0  0
   40.6799  -47.3415    6.7681 C   0  0  0  0  0  0  0  0  0  0  0  0
   40.5933  -46.7314    8.0029 C   0  0  0  0  0  0  0  0  0  0  0  0
  1  2  1  0  0  0  0
  2  3  1  0  0  0  0
  3  4  2  0  0  0  0
  4  5  1  0  0  0  0
  5  6  2  0  0  0  0
  6  7  1  0  0  0  0
  7  8  2  0  0  0  0
  8  9  1  0  0  0  0
  8  3  1  0  0  0  0
  9 10  1  0  0  0  0
 10 11  2  0  0  0  0
 10 12  1  0  0  0  0
 12 13  1  0  0  0  0
 13 14  1  0  0  0  0
 14 15  1  0  0  0  0
 15 16  2  0  0  0  0
 15 17  1  0  0  0  0
 17 18  2  0  0  0  0
 18 19  1  0  0  0  0
 19 20  1  0  0  0  0
 20 21  2  0  0  0  0
 21 22  1  0  0  0  0
 22 23  2  0  0  0  0
 23 24  1  0  0  0  0
 24 25  2  0  0  0  0
 25 17  1  0  0  0  0
 25 20  1  0  0  0  0
M  END
>  <CHROM.1>
-53.48515141,48.69646294,67.25420939,-113.45953143,-87.01076550,173.98069819
42.94457988,-46.03470185,5.31514030,-0.86086556,0.48491543,1.29766188

>  <Name>
design_11

>  <RI>
0

>  <Rbt.Current_Directory>
/home/ziqiaoxu/icml18-jtnn/VAEdesign

>  <Rbt.Executable>
rbdock ($Id: //depot/dev/client3/rdock/2013.1/src/exe/rbdock.cxx#4 $)

>  <Rbt.Library>
libRbt.so (2013.1, Build901 2013/11/27)

>  <Rbt.Parameter_File>
/export/apps/rDock/src/rDock_2013.1_src//data/scripts/dock.prm

>  <Rbt.Receptor>
/home/ziqiaoxu/icml18-jtnn/VAEdesign/targets/RdRp-SARS-CoV-2/pocket_docking.prm

>  <SCORE>
-15.4693

>  <SCORE.INTER>
-19.0123

>  <SCORE.INTER.CONST>
1

>  <SCORE.INTER.POLAR>
-1.0198

>  <SCORE.INTER.REPUL>
0

>  <SCORE.INTER.ROT>
6

>  <SCORE.INTER.VDW>
-26.945

>  <SCORE.INTER.norm>
-0.760493

>  <SCORE.INTRA>
3.54308

>  <SCORE.INTRA.DIHEDRAL>
15.8676

>  <SCORE.INTRA.DIHEDRAL.0>
2.29634

>  <SCORE.INTRA.POLAR>
0.0314506

>  <SCORE.INTRA.POLAR.0>
-0.0314506

>  <SCORE.INTRA.REPUL>
0

>  <SCORE.INTRA.REPUL.0>
0

>  <SCORE.INTRA.VDW>
-4.49766

>  <SCORE.INTRA.VDW.0>
3.57087

>  <SCORE.INTRA.norm>
0.141723

>  <SCORE.RESTR>
0

>  <SCORE.RESTR.CAVITY>
0

>  <SCORE.RESTR.norm>
0

>  <SCORE.SYSTEM>
0

>  <SCORE.SYSTEM.CONST>
0

>  <SCORE.SYSTEM.DIHEDRAL>
0

>  <SCORE.SYSTEM.norm>
0

>  <SCORE.heavy>
25

>  <SCORE.norm>
-0.61877

$$$$
design_18
 OpenBabel05252019093D

 26 28  0  0  0  0  0  0  0  0999 V2000
   39.3694  -42.1059   10.0115 C   0  0  0  0  0  0  0  0  0  0  0  0
   40.5063  -42.7403    9.3605 N   0  0  0  0  0  0  0  0  0  0  0  0
   41.0342  -43.9360    9.9870 C   0  0  0  0  0  0  0  0  0  0  0  0
   40.6212  -45.1512    9.2388 C   0  0  0  0  0  0  0  0  0  0  0  0
   39.4103  -45.7868    9.4964 C   0  0  0  0  0  0  0  0  0  0  0  0
   38.9915  -46.9180    8.8272 C   0  0  0  0  0  0  0  0  0  0  0  0
   39.8050  -47.4564    7.8509 C   0  0  0  0  0  0  0  0  0  0  0  0
   39.4425  -48.6283    7.1110 C   0  0  0  0  0  0  0  0  0  0  0  0
   39.1495  -49.5714    6.5231 N   0  0  0  0  0  0  0  0  0  0  0  0
   41.0086  -46.8614    7.5643 C   0  0  0  0  0  0  0  0  0  0  0  0
   41.3981  -45.7254    8.2568 C   0  0  0  0  0  0  0  0  0  0  0  0
   41.0789  -42.2018    8.1446 C   0  0  0  0  0  0  0  0  0  0  0  0
   42.0421  -42.8146    7.6808 O   0  0  0  0  0  0  0  0  0  0  0  0
   40.4419  -40.9973    7.6190 C   0  0  0  0  0  0  0  0  0  0  0  0
   41.2622  -39.8674    7.1925 C   0  0  0  0  0  0  0  0  0  0  0  0
   40.7943  -38.9573    6.2226 N   0  0  0  0  0  0  0  0  0  0  0  0
   40.1072  -37.8591    6.5459 C   0  0  0  0  0  0  0  0  0  0  0  0
   39.6742  -36.9593    5.6419 N   0  0  0  0  0  0  0  0  0  0  0  0
   39.9056  -37.1013    4.3291 C   0  0  0  0  0  0  0  0  0  0  0  0
   39.4584  -36.1728    3.4020 C   0  0  0  0  0  0  0  0  0  0  0  0
   39.7448  -36.4051    2.0776 C   0  0  0  0  0  0  0  0  0  0  0  0
   40.4524  -37.5269    1.7076 C   0  0  0  0  0  0  0  0  0  0  0  0
   40.8954  -38.4455    2.6187 C   0  0  0  0  0  0  0  0  0  0  0  0
   40.6248  -38.2411    3.9485 C   0  0  0  0  0  0  0  0  0  0  0  0
   41.0516  -39.1406    4.9031 C   0  0  0  0  0  0  0  0  0  0  0  0
   41.6973  -40.1512    4.4951 O   0  0  0  0  0  0  0  0  0  0  0  0
  1  2  1  0  0  0  0
  2  3  1  0  0  0  0
  2 12  1  0  0  0  0
  3  4  1  0  0  0  0
  4  5  2  0  0  0  0
  5  6  1  0  0  0  0
  6  7  2  0  0  0  0
  7  8  1  0  0  0  0
  7 10  1  0  0  0  0
  8  9  3  0  0  0  0
 10 11  2  0  0  0  0
 11  4  1  0  0  0  0
 12 13  2  0  0  0  0
 12 14  1  0  0  0  0
 14 15  1  0  0  0  0
 15 16  1  0  0  0  0
 16 17  1  0  0  0  0
 17 18  2  0  0  0  0
 18 19  1  0  0  0  0
 19 20  2  0  0  0  0
 20 21  1  0  0  0  0
 21 22  2  0  0  0  0
 22 23  1  0  0  0  0
 23 24  2  0  0  0  0
 24 25  1  0  0  0  0
 24 19  1  0  0  0  0
 25 26  2  0  0  0  0
 25 16  1  0  0  0  0
M  END
>  <CHROM.1>
104.17067886,-86.69026973,133.59457646,154.02668069,90.12206904,40.40410389
-41.81670034,6.59968799,-1.86177572,-1.47971995,-0.74434589

>  <Name>
design_18

>  <RI>
0

>  <Rbt.Current_Directory>
/home/ziqiaoxu/icml18-jtnn/VAEdesign

>  <Rbt.Executable>
rbdock ($Id: //depot/dev/client3/rdock/2013.1/src/exe/rbdock.cxx#4 $)

>  <Rbt.Library>
libRbt.so (2013.1, Build901 2013/11/27)

>  <Rbt.Parameter_File>
/export/apps/rDock/src/rDock_2013.1_src//data/scripts/dock.prm

>  <Rbt.Receptor>
/home/ziqiaoxu/icml18-jtnn/VAEdesign/targets/RdRp-SARS-CoV-2/pocket_docking.prm

>  <SCORE>
-14.6929

>  <SCORE.INTER>
-16.5402

>  <SCORE.INTER.CONST>
1

>  <SCORE.INTER.POLAR>
0

>  <SCORE.INTER.REPUL>
0.000354403

>  <SCORE.INTER.ROT>
5

>  <SCORE.INTER.VDW>
-26.9419

>  <SCORE.INTER.norm>
-0.63616

>  <SCORE.INTRA>
1.84723

>  <SCORE.INTRA.DIHEDRAL>
3.62835

>  <SCORE.INTRA.DIHEDRAL.0>
5.31333

>  <SCORE.INTRA.POLAR>
0

>  <SCORE.INTRA.POLAR.0>
0

>  <SCORE.INTRA.REPUL>
0

>  <SCORE.INTRA.REPUL.0>
0

>  <SCORE.INTRA.VDW>
0.0330491

>  <SCORE.INTRA.VDW.0>
-2.10956

>  <SCORE.INTRA.norm>
0.0710471

>  <SCORE.RESTR>
0

>  <SCORE.RESTR.CAVITY>
0

>  <SCORE.RESTR.norm>
0

>  <SCORE.SYSTEM>
0

>  <SCORE.SYSTEM.CONST>
0

>  <SCORE.SYSTEM.DIHEDRAL>
0

>  <SCORE.SYSTEM.norm>
0

>  <SCORE.heavy>
26

>  <SCORE.norm>
-0.565113

$$$$
design_7
 OpenBabel05252019093D

 22 25  0  0  0  0  0  0  0  0999 V2000
   44.0555  -44.8990   13.7309 C   0  0  0  0  0  0  0  0  0  0  0  0
   45.0978  -44.8615   12.6217 C   0  0  0  0  0  0  0  0  0  0  0  0
   46.2760  -45.5354   12.7537 C   0  0  0  0  0  0  0  0  0  0  0  0
   47.0381  -45.1526   11.2531 S   0  0  0  0  0  0  0  0  0  0  0  0
   45.8071  -44.1700   10.5804 C   0  0  0  0  0  0  0  0  0  0  0  0
   45.7666  -43.4880    9.2471 C   0  0  0  0  0  0  0  0  0  0  0  0
   44.6862  -44.0742    8.4825 N   0  0  0  0  0  0  0  0  0  0  0  0
   43.2635  -43.9265    8.7853 C   0  0  0  0  0  0  0  0  0  0  0  0
   42.7261  -45.2332    8.2939 C   0  0  1  0  0  0  0  0  0  0  0  0
   41.4287  -45.6718    8.6590 C   0  0  0  0  0  0  0  0  0  0  0  0
   40.7273  -45.4431    9.8484 C   0  0  0  0  0  0  0  0  0  0  0  0
   39.6284  -46.2156    9.9076 N   0  0  0  0  0  0  0  0  0  0  0  0
   39.5444  -46.9485    8.8164 C   0  0  0  0  0  0  0  0  0  0  0  0
   38.5676  -47.8573    8.3737 C   0  0  0  0  0  0  0  0  0  0  0  0
   38.7103  -48.4341    7.1345 C   0  0  0  0  0  0  0  0  0  0  0  0
   39.7928  -48.1280    6.3423 C   0  0  0  0  0  0  0  0  0  0  0  0
   40.7673  -47.2193    6.7936 C   0  0  0  0  0  0  0  0  0  0  0  0
   40.6156  -46.6503    8.0310 C   0  0  0  0  0  0  0  0  0  0  0  0
   43.4123  -45.5497    7.0478 C   0  0  0  0  0  0  0  0  0  0  0  0
   44.7595  -44.8775    7.3181 C   0  0  0  0  0  0  0  0  0  0  0  0
   45.7866  -45.0101    6.6161 O   0  0  0  0  0  0  0  0  0  0  0  0
   44.8894  -44.1869   11.5269 N   0  0  0  0  0  0  0  0  0  0  0  0
  1  2  1  0  0  0  0
  2  3  2  0  0  0  0
  3  4  1  0  0  0  0
  4  5  1  0  0  0  0
  5  6  1  0  0  0  0
  5 22  2  0  0  0  0
  6  7  1  0  0  0  0
  7  8  1  0  0  0  0
  8  9  1  0  0  0  0
  9 10  1  6  0  0  0
  9 19  1  0  0  0  0
 10 11  2  0  0  0  0
 11 12  1  0  0  0  0
 12 13  1  0  0  0  0
 13 14  2  0  0  0  0
 14 15  1  0  0  0  0
 15 16  2  0  0  0  0
 16 17  1  0  0  0  0
 17 18  2  0  0  0  0
 18 10  1  0  0  0  0
 18 13  1  0  0  0  0
 19 20  1  0  0  0  0
 20 21  2  0  0  0  0
 20  7  1  0  0  0  0
 22  2  1  0  0  0  0
M  END
>  <CHROM.1>
115.54898364,68.26567016,-32.32066336,43.17066256,-45.55995254,9.32165208
0.47688581,0.38148072,1.54645932

>  <Name>
design_7

>  <RI>
0

>  <Rbt.Current_Directory>
/home/ziqiaoxu/icml18-jtnn/VAEdesign

>  <Rbt.Executable>
rbdock ($Id: //depot/dev/client3/rdock/2013.1/src/exe/rbdock.cxx#4 $)

>  <Rbt.Library>
libRbt.so (2013.1, Build901 2013/11/27)

>  <Rbt.Parameter_File>
/export/apps/rDock/src/rDock_2013.1_src//data/scripts/dock.prm

>  <Rbt.Receptor>
/home/ziqiaoxu/icml18-jtnn/VAEdesign/targets/RdRp-SARS-CoV-2/pocket_docking.prm

>  <SCORE>
-21.6982

>  <SCORE.INTER>
-21.9569

>  <SCORE.INTER.CONST>
1

>  <SCORE.INTER.POLAR>
-1.0198

>  <SCORE.INTER.REPUL>
0.00923494

>  <SCORE.INTER.ROT>
3

>  <SCORE.INTER.VDW>
-26.9357

>  <SCORE.INTER.norm>
-0.99804

>  <SCORE.INTRA>
0.258708

>  <SCORE.INTRA.DIHEDRAL>
-0.724196

>  <SCORE.INTRA.DIHEDRAL.0>
5.16869

>  <SCORE.INTRA.POLAR>
0

>  <SCORE.INTRA.POLAR.0>
0

>  <SCORE.INTRA.REPUL>
0

>  <SCORE.INTRA.REPUL.0>
0

>  <SCORE.INTRA.VDW>
0.620806

>  <SCORE.INTRA.VDW.0>
-2.00637

>  <SCORE.INTRA.norm>
0.0117595

>  <SCORE.RESTR>
0

>  <SCORE.RESTR.CAVITY>
0

>  <SCORE.RESTR.norm>
0

>  <SCORE.SYSTEM>
0

>  <SCORE.SYSTEM.CONST>
0

>  <SCORE.SYSTEM.DIHEDRAL>
0

>  <SCORE.SYSTEM.norm>
0

>  <SCORE.heavy>
22

>  <SCORE.norm>
-0.986281

$$$$
design_9
 OpenBabel05252019093D

 25 26  0  0  0  0  0  0  0  0999 V2000
   40.2743  -45.7425   10.7650 N   0  0  0  0  0  0  0  0  0  0  0  0
   40.8919  -45.7163    9.4502 C   0  0  0  0  0  0  0  0  0  0  0  0
   41.8162  -44.8725    9.2827 O   0  0  0  0  0  0  0  0  0  0  0  0
   40.3865  -46.6565    8.4736 C   0  0  0  0  0  0  0  0  0  0  0  0
   39.2755  -47.4361    8.8509 C   0  0  0  0  0  0  0  0  0  0  0  0
   38.6710  -48.3023    7.9875 C   0  0  0  0  0  0  0  0  0  0  0  0
   39.1658  -48.4091    6.7228 C   0  0  0  0  0  0  0  0  0  0  0  0
   40.2682  -47.6349    6.3562 C   0  0  0  0  0  0  0  0  0  0  0  0
   40.9074  -46.7464    7.2045 C   0  0  0  0  0  0  0  0  0  0  0  0
   42.0612  -46.0650    6.8367 N   0  0  0  0  0  0  0  0  0  0  0  0
   42.5794  -46.0143    5.5190 C   0  0  0  0  0  0  0  0  0  0  0  0
   42.1156  -46.5362    4.4901 O   0  0  0  0  0  0  0  0  0  0  0  0
   43.8683  -45.2363    5.2679 C   0  0  0  0  0  0  0  0  0  0  0  0
   44.7099  -45.2892    6.4390 N   0  0  0  0  0  0  0  0  0  0  0  0
   44.5879  -44.3088    7.4512 C   0  0  0  0  0  0  0  0  0  0  0  0
   43.7284  -43.3866    7.3111 O   0  0  0  0  0  0  0  0  0  0  0  0
   45.4217  -44.3600    8.6129 N   0  0  0  0  0  0  0  0  0  0  0  0
   45.3043  -43.3703    9.6546 C   0  0  0  0  0  0  0  0  0  0  0  0
   45.5012  -43.9601   11.0056 C   0  0  0  0  0  0  0  0  0  0  0  0
   46.3823  -45.0024   11.1934 C   0  0  0  0  0  0  0  0  0  0  0  0
   46.5392  -45.5342   12.4789 C   0  0  0  0  0  0  0  0  0  0  0  0
   45.8504  -45.0579   13.5593 C   0  0  0  0  0  0  0  0  0  0  0  0
   44.9726  -44.0173   13.3652 C   0  0  0  0  0  0  0  0  0  0  0  0
   44.2702  -43.5187   14.4167 F   0  0  0  0  0  0  0  0  0  0  0  0
   44.8056  -43.4798   12.0988 C   0  0  0  0  0  0  0  0  0  0  0  0
  1  2  1  0  0  0  0
  2  3  2  0  0  0  0
  2  4  1  0  0  0  0
  4  5  2  0  0  0  0
  5  6  1  0  0  0  0
  6  7  2  0  0  0  0
  7  8  1  0  0  0  0
  8  9  2  0  0  0  0
  9 10  1  0  0  0  0
  9  4  1  0  0  0  0
 10 11  1  0  0  0  0
 11 12  2  0  0  0  0
 11 13  1  0  0  0  0
 13 14  1  0  0  0  0
 14 15  1  0  0  0  0
 15 16  2  0  0  0  0
 15 17  1  0  0  0  0
 17 18  1  0  0  0  0
 18 19  1  0  0  0  0
 19 20  2  0  0  0  0
 20 21  1  0  0  0  0
 21 22  2  0  0  0  0
 22 23  1  0  0  0  0
 23 24  1  0  0  0  0
 23 25  2  0  0  0  0
 25 19  1  0  0  0  0
M  END
>  <CHROM.1>
4.85809988,-173.82533471,31.12936320,-89.36404490,143.18028302,33.92290142
42.99815085,-45.41563291,9.01867677,2.27997159,-0.46067314,-1.65491823

>  <Name>
design_9

>  <RI>
0

>  <Rbt.Current_Directory>
/home/ziqiaoxu/icml18-jtnn/VAEdesign

>  <Rbt.Executable>
rbdock ($Id: //depot/dev/client3/rdock/2013.1/src/exe/rbdock.cxx#4 $)

>  <Rbt.Library>
libRbt.so (2013.1, Build901 2013/11/27)

>  <Rbt.Parameter_File>
/export/apps/rDock/src/rDock_2013.1_src//data/scripts/dock.prm

>  <Rbt.Receptor>
/home/ziqiaoxu/icml18-jtnn/VAEdesign/targets/RdRp-SARS-CoV-2/pocket_docking.prm

>  <SCORE>
-26.6031

>  <SCORE.INTER>
-25.1741

>  <SCORE.INTER.CONST>
1

>  <SCORE.INTER.POLAR>
-2.88705

>  <SCORE.INTER.REPUL>
0.0334397

>  <SCORE.INTER.ROT>
6

>  <SCORE.INTER.VDW>
-26.9253

>  <SCORE.INTER.norm>
-1.00696

>  <SCORE.INTRA>
-1.42898

>  <SCORE.INTRA.DIHEDRAL>
-1.10885

>  <SCORE.INTRA.DIHEDRAL.0>
6.03265

>  <SCORE.INTRA.POLAR>
0

>  <SCORE.INTRA.POLAR.0>
0

>  <SCORE.INTRA.REPUL>
0

>  <SCORE.INTRA.REPUL.0>
0

>  <SCORE.INTRA.VDW>
-0.874559

>  <SCORE.INTRA.VDW.0>
-0.707301

>  <SCORE.INTRA.norm>
-0.0571593

>  <SCORE.RESTR>
0

>  <SCORE.RESTR.CAVITY>
0

>  <SCORE.RESTR.norm>
0

>  <SCORE.SYSTEM>
0

>  <SCORE.SYSTEM.CONST>
0

>  <SCORE.SYSTEM.DIHEDRAL>
0

>  <SCORE.SYSTEM.norm>
0

>  <SCORE.heavy>
25

>  <SCORE.norm>
-1.06412

$$$$
design_1
 OpenBabel05252019093D

 23 24  0  0  0  0  0  0  0  0999 V2000
   39.1141  -48.6951    6.6946 C   0  0  0  0  0  0  0  0  0  0  0  0
   39.6773  -47.6496    7.6106 C   0  0  0  0  0  0  0  0  0  0  0  0
   39.0211  -47.3192    8.7843 C   0  0  0  0  0  0  0  0  0  0  0  0
   39.5340  -46.3588    9.6306 C   0  0  0  0  0  0  0  0  0  0  0  0
   40.7285  -45.7121    9.3004 C   0  0  0  0  0  0  0  0  0  0  0  0
   41.4046  -46.0137    8.1475 C   0  0  0  0  0  0  0  0  0  0  0  0
   42.6594  -45.3536    7.7724 C   0  0  0  0  0  0  0  0  0  0  0  0
   43.1903  -44.5496    8.6032 O   0  0  0  0  0  0  0  0  0  0  0  0
   43.2918  -45.5737    6.5408 N   0  0  0  0  0  0  0  0  0  0  0  0
   44.5154  -44.9041    6.1917 C   0  0  0  0  0  0  0  0  0  0  0  0
   44.8453  -45.1781    4.7735 C   0  0  0  0  0  0  0  0  0  0  0  0
   44.2073  -44.6222    3.8715 O   0  0  0  0  0  0  0  0  0  0  0  0
   45.9029  -46.0869    4.5104 N   0  0  0  0  0  0  0  0  0  0  0  0
   46.3815  -46.4966    3.2541 C   0  0  0  0  0  0  0  0  0  0  0  0
   47.3732  -47.4107    3.0300 C   0  0  0  0  0  0  0  0  0  0  0  0
   47.7842  -47.7862    1.7438 C   0  0  0  0  0  0  0  0  0  0  0  0
   47.1887  -47.2332    0.6352 C   0  0  0  0  0  0  0  0  0  0  0  0
   46.1942  -46.3161    0.8398 C   0  0  0  0  0  0  0  0  0  0  0  0
   45.4861  -45.6587   -0.2976 C   0  0  0  0  0  0  0  0  0  0  0  0
   45.4516  -44.1617   -0.1632 C   0  0  0  0  0  0  0  0  0  0  0  0
   44.0560  -46.1661   -0.2628 C   0  0  0  0  0  0  0  0  0  0  0  0
   45.7941  -45.9509    2.1087 C   0  0  0  0  0  0  0  0  0  0  0  0
   40.8462  -46.9898    7.3266 C   0  0  0  0  0  0  0  0  0  0  0  0
  1  2  1  0  0  0  0
  2  3  2  0  0  0  0
  3  4  1  0  0  0  0
  4  5  2  0  0  0  0
  5  6  1  0  0  0  0
  6  7  1  0  0  0  0
  6 23  2  0  0  0  0
  7  8  2  0  0  0  0
  7  9  1  0  0  0  0
  9 10  1  0  0  0  0
 10 11  1  0  0  0  0
 11 12  2  0  0  0  0
 11 13  1  0  0  0  0
 13 14  1  0  0  0  0
 14 15  2  0  0  0  0
 15 16  1  0  0  0  0
 16 17  2  0  0  0  0
 17 18  1  0  0  0  0
 18 19  1  0  0  0  0
 18 22  2  0  0  0  0
 19 20  1  0  0  0  0
 19 21  1  0  0  0  0
 22 14  1  0  0  0  0
 23  2  1  0  0  0  0
M  END
>  <CHROM.1>
5.75385008,-172.01770048,74.31085704,-177.56983139,-129.19816163,43.68263048
-46.14972841,4.78786765,2.29721925,0.37941522,1.30424579

>  <Name>
design_1

>  <RI>
0

>  <Rbt.Current_Directory>
/home/ziqiaoxu/icml18-jtnn/VAEdesign

>  <Rbt.Executable>
rbdock ($Id: //depot/dev/client3/rdock/2013.1/src/exe/rbdock.cxx#4 $)

>  <Rbt.Library>
libRbt.so (2013.1, Build901 2013/11/27)

>  <Rbt.Parameter_File>
/export/apps/rDock/src/rDock_2013.1_src//data/scripts/dock.prm

>  <Rbt.Receptor>
/home/ziqiaoxu/icml18-jtnn/VAEdesign/targets/RdRp-SARS-CoV-2/pocket_docking.prm

>  <SCORE>
-18.9342

>  <SCORE.INTER>
-19.5394

>  <SCORE.INTER.CONST>
1

>  <SCORE.INTER.POLAR>
-0.886968

>  <SCORE.INTER.REPUL>
0

>  <SCORE.INTER.ROT>
5

>  <SCORE.INTER.VDW>
-26.9237

>  <SCORE.INTER.norm>
-0.84954

>  <SCORE.INTRA>
0.605197

>  <SCORE.INTRA.DIHEDRAL>
-0.729588

>  <SCORE.INTRA.DIHEDRAL.0>
4.12597

>  <SCORE.INTRA.POLAR>
0

>  <SCORE.INTRA.POLAR.0>
0

>  <SCORE.INTRA.REPUL>
0

>  <SCORE.INTRA.REPUL.0>
0

>  <SCORE.INTRA.VDW>
0.969992

>  <SCORE.INTRA.VDW.0>
0.879625

>  <SCORE.INTRA.norm>
0.0263129

>  <SCORE.RESTR>
0

>  <SCORE.RESTR.CAVITY>
0

>  <SCORE.RESTR.norm>
0

>  <SCORE.SYSTEM>
0

>  <SCORE.SYSTEM.CONST>
0

>  <SCORE.SYSTEM.DIHEDRAL>
0

>  <SCORE.SYSTEM.norm>
0

>  <SCORE.heavy>
23

>  <SCORE.norm>
-0.823227

$$$$
design_9
 OpenBabel05252019093D

 24 26  0  0  0  0  0  0  0  0999 V2000
   41.2150  -44.0222    2.6289 C   0  0  0  0  0  0  0  0  0  0  0  0
   40.7272  -45.0725    3.5609 C   0  0  0  0  0  0  0  0  0  0  0  0
   41.5662  -46.0384    4.0593 C   0  0  0  0  0  0  0  0  0  0  0  0
   41.0945  -47.0095    4.9268 C   0  0  0  0  0  0  0  0  0  0  0  0
   39.7987  -47.0830    5.3440 C   0  0  0  0  0  0  0  0  0  0  0  0
   39.1574  -48.2913    6.4187 S   0  0  0  0  0  0  0  0  0  0  0  0
   37.8120  -48.7955    5.9136 O   0  0  0  0  0  0  0  0  0  0  0  0
   40.0985  -49.4889    6.4846 O   0  0  0  0  0  0  0  0  0  0  0  0
   38.9917  -47.6889    7.9924 N   0  0  0  0  0  0  0  0  0  0  0  0
   39.8352  -46.7644    8.6491 C   0  0  0  0  0  0  0  0  0  0  0  0
   39.4369  -46.2090    9.8443 C   0  0  0  0  0  0  0  0  0  0  0  0
   40.2838  -45.3205   10.4505 C   0  0  0  0  0  0  0  0  0  0  0  0
   41.5172  -45.0020    9.8497 C   0  0  0  0  0  0  0  0  0  0  0  0
   41.9257  -45.5415    8.6698 C   0  0  0  0  0  0  0  0  0  0  0  0
   43.1915  -45.2495    7.9992 C   0  0  0  0  0  0  0  0  0  0  0  0
   43.4767  -45.7672    6.7530 N   0  0  0  0  0  0  0  0  0  0  0  0
   44.6620  -45.3594    6.3763 N   0  0  0  0  0  0  0  0  0  0  0  0
   45.1516  -44.6092    7.3125 N   0  0  0  0  0  0  0  0  0  0  0  0
   44.2597  -44.5361    8.3089 N   0  0  0  0  0  0  0  0  0  0  0  0
   44.4461  -43.7827    9.5421 C   0  0  0  0  0  0  0  0  0  0  0  0
   41.0567  -46.4409    8.0664 C   0  0  0  0  0  0  0  0  0  0  0  0
   38.9394  -46.0911    4.8314 C   0  0  0  0  0  0  0  0  0  0  0  0
   37.5266  -46.1017    5.2335 C   0  0  0  0  0  0  0  0  0  0  0  0
   39.4149  -45.1303    3.9703 C   0  0  0  0  0  0  0  0  0  0  0  0
  1  2  1  0  0  0  0
  2  3  2  0  0  0  0
  3  4  1  0  0  0  0
  4  5  2  0  0  0  0
  5  6  1  0  0  0  0
  5 22  1  0  0  0  0
  6  7  2  0  0  0  0
  6  8  2  0  0  0  0
  6  9  1  0  0  0  0
  9 10  1  0  0  0  0
 10 11  2  0  0  0  0
 11 12  1  0  0  0  0
 12 13  2  0  0  0  0
 13 14  1  0  0  0  0
 14 15  1  0  0  0  0
 14 21  2  0  0  0  0
 15 16  2  0  0  0  0
 16 17  1  0  0  0  0
 17 18  2  0  0  0  0
 18 19  1  0  0  0  0
 19 20  1  0  0  0  0
 19 15  1  0  0  0  0
 21 10  1  0  0  0  0
 22 23  1  0  0  0  0
 22 24  2  0  0  0  0
 24  2  1  0  0  0  0
M  END
>  <CHROM.1>
-136.37041645,-34.93644374,169.13863524,-174.99488863,40.95306087,-46.21113311
6.76857875,-2.73471421,0.55408806,1.69925693

>  <Name>
design_9

>  <RI>
0

>  <Rbt.Current_Directory>
/home/ziqiaoxu/icml18-jtnn/VAEdesign

>  <Rbt.Executable>
rbdock ($Id: //depot/dev/client3/rdock/2013.1/src/exe/rbdock.cxx#4 $)

>  <Rbt.Library>
libRbt.so (2013.1, Build901 2013/11/27)

>  <Rbt.Parameter_File>
/export/apps/rDock/src/rDock_2013.1_src//data/scripts/dock.prm

>  <Rbt.Receptor>
/home/ziqiaoxu/icml18-jtnn/VAEdesign/targets/RdRp-SARS-CoV-2/pocket_docking.prm

>  <SCORE>
-19.7871

>  <SCORE.INTER>
-17.5225

>  <SCORE.INTER.CONST>
1

>  <SCORE.INTER.POLAR>
0

>  <SCORE.INTER.REPUL>
0

>  <SCORE.INTER.ROT>
4

>  <SCORE.INTER.VDW>
-26.9225

>  <SCORE.INTER.norm>
-0.730104

>  <SCORE.INTRA>
-2.26462

>  <SCORE.INTRA.DIHEDRAL>
-4.67854

>  <SCORE.INTRA.DIHEDRAL.0>
7.65356

>  <SCORE.INTRA.POLAR>
0

>  <SCORE.INTRA.POLAR.0>
0

>  <SCORE.INTRA.REPUL>
0

>  <SCORE.INTRA.REPUL.0>
0

>  <SCORE.INTRA.VDW>
0.0746533

>  <SCORE.INTRA.VDW.0>
-2.18404

>  <SCORE.INTRA.norm>
-0.0943591

>  <SCORE.RESTR>
0

>  <SCORE.RESTR.CAVITY>
0

>  <SCORE.RESTR.norm>
0

>  <SCORE.SYSTEM>
0

>  <SCORE.SYSTEM.CONST>
0

>  <SCORE.SYSTEM.DIHEDRAL>
0

>  <SCORE.SYSTEM.norm>
0

>  <SCORE.heavy>
24

>  <SCORE.norm>
-0.824463

$$$$
design_13
 OpenBabel05252019093D

 27 29  0  0  0  0  0  0  0  0999 V2000
   43.2654  -44.0958    9.4939 C   0  0  0  0  0  0  0  0  0  0  0  0
   42.3364  -45.0344    8.9026 N   0  0  0  0  0  0  0  0  0  0  0  0
   42.7281  -45.6704    7.8109 C   0  0  0  0  0  0  0  0  0  0  0  0
   44.3646  -45.4880    7.0533 S   0  0  0  0  0  0  0  0  0  0  0  0
   43.9889  -45.0789    5.2991 C   0  0  0  0  0  0  0  0  0  0  0  0
   45.2331  -44.7415    4.6313 C   0  0  0  0  0  0  0  0  0  0  0  0
   45.3108  -43.6324    4.0412 O   0  0  0  0  0  0  0  0  0  0  0  0
   46.3600  -45.5892    4.6164 N   0  0  0  0  0  0  0  0  0  0  0  0
   47.5970  -45.1387    3.9575 C   0  0  0  0  0  0  0  0  0  0  0  0
   47.9060  -46.0614    2.8357 C   0  0  0  0  0  0  0  0  0  0  0  0
   48.1683  -47.4693    3.3158 C   0  0  0  0  0  0  0  0  0  0  0  0
   49.2224  -45.5258    2.2061 C   0  0  0  0  0  0  0  0  0  0  0  0
   46.9188  -46.0614    1.7580 C   0  0  0  0  0  0  0  0  0  0  0  0
   45.8366  -45.1898    1.7142 C   0  0  0  0  0  0  0  0  0  0  0  0
   44.9728  -45.2352    0.6259 C   0  0  0  0  0  0  0  0  0  0  0  0
   45.1492  -46.1128   -0.4093 C   0  0  0  0  0  0  0  0  0  0  0  0
   46.2050  -46.9822   -0.3885 C   0  0  0  0  0  0  0  0  0  0  0  0
   47.0756  -46.9397    0.6998 C   0  0  0  0  0  0  0  0  0  0  0  0
   41.8511  -46.5625    7.2432 N   0  0  0  0  0  0  0  0  0  0  0  0
   40.6427  -46.7855    7.7690 C   0  0  0  0  0  0  0  0  0  0  0  0
   39.8124  -47.6961    7.1648 C   0  0  0  0  0  0  0  0  0  0  0  0
   38.5742  -47.9398    7.7041 C   0  0  0  0  0  0  0  0  0  0  0  0
   38.1770  -47.2712    8.8390 C   0  0  0  0  0  0  0  0  0  0  0  0
   38.9865  -46.3545    9.4642 C   0  0  0  0  0  0  0  0  0  0  0  0
   40.2426  -46.1179    8.9093 C   0  0  0  0  0  0  0  0  0  0  0  0
   41.1239  -45.2230    9.4777 C   0  0  0  0  0  0  0  0  0  0  0  0
   40.7788  -44.5958   10.5230 O   0  0  0  0  0  0  0  0  0  0  0  0
  1  2  1  0  0  0  0
  2  3  1  0  0  0  0
  3  4  1  0  0  0  0
  3 19  2  0  0  0  0
  4  5  1  0  0  0  0
  5  6  1  0  0  0  0
  6  7  2  0  0  0  0
  6  8  1  0  0  0  0
  8  9  1  0  0  0  0
  9 10  1  0  0  0  0
 10 11  1  0  0  0  0
 10 12  1  0  0  0  0
 10 13  1  0  0  0  0
 13 14  2  0  0  0  0
 14 15  1  0  0  0  0
 15 16  2  0  0  0  0
 16 17  1  0  0  0  0
 17 18  2  0  0  0  0
 18 13  1  0  0  0  0
 19 20  1  0  0  0  0
 20 21  2  0  0  0  0
 21 22  1  0  0  0  0
 22 23  2  0  0  0  0
 23 24  1  0  0  0  0
 24 25  2  0  0  0  0
 25 26  1  0  0  0  0
 25 20  1  0  0  0  0
 26 27  2  0  0  0  0
 26  2  1  0  0  0  0
M  END
>  <CHROM.1>
-127.28659064,172.80252133,-125.12767135,-118.16609040,-62.67710083,5.48429567
43.89274670,-45.82201534,5.47984593,-2.38066368,-0.36059170,-1.90367275

>  <Name>
design_13

>  <RI>
0

>  <Rbt.Current_Directory>
/home/ziqiaoxu/icml18-jtnn/VAEdesign

>  <Rbt.Executable>
rbdock ($Id: //depot/dev/client3/rdock/2013.1/src/exe/rbdock.cxx#4 $)

>  <Rbt.Library>
libRbt.so (2013.1, Build901 2013/11/27)

>  <Rbt.Parameter_File>
/export/apps/rDock/src/rDock_2013.1_src//data/scripts/dock.prm

>  <Rbt.Receptor>
/home/ziqiaoxu/icml18-jtnn/VAEdesign/targets/RdRp-SARS-CoV-2/pocket_docking.prm

>  <SCORE>
-23.2035

>  <SCORE.INTER>
-18.5373

>  <SCORE.INTER.CONST>
1

>  <SCORE.INTER.POLAR>
-0.887543

>  <SCORE.INTER.REPUL>
0

>  <SCORE.INTER.ROT>
6

>  <SCORE.INTER.VDW>
-26.9197

>  <SCORE.INTER.norm>
-0.686568

>  <SCORE.INTRA>
-4.66617

>  <SCORE.INTRA.DIHEDRAL>
-0.866426

>  <SCORE.INTRA.DIHEDRAL.0>
6.2172

>  <SCORE.INTRA.POLAR>
0

>  <SCORE.INTRA.POLAR.0>
0

>  <SCORE.INTRA.REPUL>
0

>  <SCORE.INTRA.REPUL.0>
0

>  <SCORE.INTRA.VDW>
-4.23296

>  <SCORE.INTRA.VDW.0>
6.17877

>  <SCORE.INTRA.norm>
-0.172821

>  <SCORE.RESTR>
0

>  <SCORE.RESTR.CAVITY>
0

>  <SCORE.RESTR.norm>
0

>  <SCORE.SYSTEM>
0

>  <SCORE.SYSTEM.CONST>
0

>  <SCORE.SYSTEM.DIHEDRAL>
0

>  <SCORE.SYSTEM.norm>
0

>  <SCORE.heavy>
27

>  <SCORE.norm>
-0.859389

$$$$
design_6
 OpenBabel05252019093D

 26 28  0  0  0  0  0  0  0  0999 V2000
   49.0633  -46.6247    3.4433 C   0  0  0  0  0  0  0  0  0  0  0  0
   47.8237  -46.8434    2.6563 C   0  0  0  0  0  0  0  0  0  0  0  0
   46.6889  -45.9091    2.9967 C   0  0  2  0  0  0  0  0  0  0  0  0
   46.2363  -46.0513    4.3477 N   0  0  0  0  0  0  0  0  0  0  0  0
   45.6503  -44.9828    5.0784 C   0  0  0  0  0  0  0  0  0  0  0  0
   45.5074  -43.8552    4.5482 O   0  0  0  0  0  0  0  0  0  0  0  0
   45.2117  -45.1531    6.4171 N   0  0  0  0  0  0  0  0  0  0  0  0
   44.6129  -44.0969    7.1954 C   0  0  0  0  0  0  0  0  0  0  0  0
   43.4309  -44.5537    7.9712 C   0  0  0  0  0  0  0  0  0  0  0  0
   43.2266  -44.0813    9.2494 C   0  0  0  0  0  0  0  0  0  0  0  0
   42.1158  -44.5117    9.9798 C   0  0  0  0  0  0  0  0  0  0  0  0
   41.2447  -45.4040    9.4027 C   0  0  0  0  0  0  0  0  0  0  0  0
   41.4118  -45.9060    8.1179 C   0  0  0  0  0  0  0  0  0  0  0  0
   40.5011  -46.8261    7.5396 N   0  0  0  0  0  0  0  0  0  0  0  0
   39.3051  -47.3306    8.1966 C   0  0  0  0  0  0  0  0  0  0  0  0
   38.9622  -48.6174    7.4668 C   0  0  0  0  0  0  0  0  0  0  0  0
   39.7359  -48.6376    6.1938 C   0  0  0  0  0  0  0  0  0  0  0  0
   40.5690  -47.4183    6.2568 C   0  0  0  0  0  0  0  0  0  0  0  0
   41.2495  -46.9647    5.2999 O   0  0  0  0  0  0  0  0  0  0  0  0
   42.5306  -45.4475    7.4335 C   0  0  0  0  0  0  0  0  0  0  0  0
   45.5870  -45.9486    2.0022 C   0  0  0  0  0  0  0  0  0  0  0  0
   45.8143  -46.1399    0.6531 C   0  0  0  0  0  0  0  0  0  0  0  0
   44.7990  -46.1767   -0.2795 C   0  0  0  0  0  0  0  0  0  0  0  0
   43.4800  -46.0130    0.1613 C   0  0  0  0  0  0  0  0  0  0  0  0
   43.2873  -45.8287    1.4797 N   0  0  0  0  0  0  0  0  0  0  0  0
   44.2539  -45.7912    2.3855 C   0  0  0  0  0  0  0  0  0  0  0  0
  1  2  1  0  0  0  0
  3  2  1  6  0  0  0
  3  4  1  0  0  0  0
  3 21  1  0  0  0  0
  4  5  1  0  0  0  0
  5  6  2  0  0  0  0
  5  7  1  0  0  0  0
  7  8  1  0  0  0  0
  8  9  1  0  0  0  0
  9 10  2  0  0  0  0
 10 11  1  0  0  0  0
 11 12  2  0  0  0  0
 12 13  1  0  0  0  0
 13 14  1  0  0  0  0
 13 20  2  0  0  0  0
 14 15  1  0  0  0  0
 15 16  1  0  0  0  0
 16 17  1  0  0  0  0
 17 18  1  0  0  0  0
 18 19  2  0  0  0  0
 18 14  1  0  0  0  0
 20  9  1  0  0  0  0
 21 22  2  0  0  0  0
 22 23  1  0  0  0  0
 23 24  2  0  0  0  0
 24 25  1  0  0  0  0
 25 26  2  0  0  0  0
 26 21  1  0  0  0  0
M  END
>  <CHROM.1>
-62.69633857,151.57140066,136.92188821,140.89415924,0.75408762,-34.70129044
43.57687503,-45.98282077,5.22922309,-0.78746785,0.38912569,1.27516278

>  <Name>
design_6

>  <RI>
0

>  <Rbt.Current_Directory>
/home/ziqiaoxu/icml18-jtnn/VAEdesign

>  <Rbt.Executable>
rbdock ($Id: //depot/dev/client3/rdock/2013.1/src/exe/rbdock.cxx#4 $)

>  <Rbt.Library>
libRbt.so (2013.1, Build901 2013/11/27)

>  <Rbt.Parameter_File>
/export/apps/rDock/src/rDock_2013.1_src//data/scripts/dock.prm

>  <Rbt.Receptor>
/home/ziqiaoxu/icml18-jtnn/VAEdesign/targets/RdRp-SARS-CoV-2/pocket_docking.prm

>  <SCORE>
-23.8335

>  <SCORE.INTER>
-19.5362

>  <SCORE.INTER.CONST>
1

>  <SCORE.INTER.POLAR>
-1.24331

>  <SCORE.INTER.REPUL>
0.0421429

>  <SCORE.INTER.ROT>
6

>  <SCORE.INTER.VDW>
-26.9196

>  <SCORE.INTER.norm>
-0.751392

>  <SCORE.INTRA>
-4.29732

>  <SCORE.INTRA.DIHEDRAL>
-11.5145

>  <SCORE.INTRA.DIHEDRAL.0>
15.6222

>  <SCORE.INTRA.POLAR>
0

>  <SCORE.INTRA.POLAR.0>
0

>  <SCORE.INTRA.REPUL>
0

>  <SCORE.INTRA.REPUL.0>
0

>  <SCORE.INTRA.VDW>
1.45993

>  <SCORE.INTRA.VDW.0>
-2.17162

>  <SCORE.INTRA.norm>
-0.165281

>  <SCORE.RESTR>
0

>  <SCORE.RESTR.CAVITY>
0

>  <SCORE.RESTR.norm>
0

>  <SCORE.SYSTEM>
0

>  <SCORE.SYSTEM.CONST>
0

>  <SCORE.SYSTEM.DIHEDRAL>
0

>  <SCORE.SYSTEM.norm>
0

>  <SCORE.heavy>
26

>  <SCORE.norm>
-0.916673

$$$$
design_3
 OpenBabel05252019093D

 23 24  0  0  0  0  0  0  0  0999 V2000
   39.3165  -49.2550    6.7719 C   0  0  0  0  0  0  0  0  0  0  0  0
   39.5103  -47.9805    7.4961 C   0  0  0  0  0  0  0  0  0  0  0  0
   38.5484  -47.5431    8.4177 C   0  0  0  0  0  0  0  0  0  0  0  0
   38.7199  -46.3544    9.0765 C   0  0  0  0  0  0  0  0  0  0  0  0
   39.8581  -45.5677    8.8348 C   0  0  0  0  0  0  0  0  0  0  0  0
   40.1012  -44.0243    9.6675 S   0  0  0  0  0  0  0  0  0  0  0  0
   39.4817  -42.6785    8.6286 C   0  0  0  0  0  0  0  0  0  0  0  0
   39.5015  -41.4433    9.5560 C   0  0  0  0  0  0  0  0  0  0  0  0
   38.8997  -41.6658   10.6239 O   0  0  0  0  0  0  0  0  0  0  0  0
   40.1392  -40.3574    9.0744 N   0  0  0  0  0  0  0  0  0  0  0  0
   40.7799  -39.2664    8.5907 C   0  0  0  0  0  0  0  0  0  0  0  0
   40.6995  -38.9519    7.1600 C   0  0  0  0  0  0  0  0  0  0  0  0
   41.1939  -39.9133    6.4103 O   0  0  0  0  0  0  0  0  0  0  0  0
   40.1771  -37.8183    6.5372 N   0  0  0  0  0  0  0  0  0  0  0  0
   40.1271  -37.6571    5.1281 C   0  0  0  0  0  0  0  0  0  0  0  0
   40.4236  -38.7083    4.2739 C   0  0  0  0  0  0  0  0  0  0  0  0
   40.4253  -38.5988    2.8984 C   0  0  0  0  0  0  0  0  0  0  0  0
   40.1047  -37.3412    2.3687 C   0  0  0  0  0  0  0  0  0  0  0  0
   40.1075  -37.2382    1.0116 F   0  0  0  0  0  0  0  0  0  0  0  0
   39.8058  -36.2815    3.2030 C   0  0  0  0  0  0  0  0  0  0  0  0
   39.8113  -36.4175    4.5939 C   0  0  0  0  0  0  0  0  0  0  0  0
   40.7970  -46.0330    7.9153 C   0  0  0  0  0  0  0  0  0  0  0  0
   40.6351  -47.2402    7.2396 C   0  0  0  0  0  0  0  0  0  0  0  0
  1  2  1  0  0  0  0
  2  3  2  0  0  0  0
  3  4  1  0  0  0  0
  4  5  2  0  0  0  0
  5  6  1  0  0  0  0
  5 22  1  0  0  0  0
  6  7  1  0  0  0  0
  7  8  1  0  0  0  0
  8  9  2  0  0  0  0
  8 10  1  0  0  0  0
 10 11  1  0  0  0  0
 11 12  1  0  0  0  0
 12 13  2  0  0  0  0
 12 14  1  0  0  0  0
 14 15  1  0  0  0  0
 15 16  2  0  0  0  0
 16 17  1  0  0  0  0
 17 18  2  0  0  0  0
 18 19  1  0  0  0  0
 18 20  1  0  0  0  0
 20 21  2  0  0  0  0
 21 15  1  0  0  0  0
 22 23  2  0  0  0  0
 23  2  1  0  0  0  0
M  END
>  <CHROM.1>
-94.70101796,169.67328680,-52.48561899,169.83844393,-60.61282240,9.40789331
39.97229393,-41.71570059,6.88337118,3.10190432,1.51080628,1.13489161

>  <Name>
design_3

>  <RI>
0

>  <Rbt.Current_Directory>
/home/ziqiaoxu/icml18-jtnn/VAEdesign

>  <Rbt.Executable>
rbdock ($Id: //depot/dev/client3/rdock/2013.1/src/exe/rbdock.cxx#4 $)

>  <Rbt.Library>
libRbt.so (2013.1, Build901 2013/11/27)

>  <Rbt.Parameter_File>
/export/apps/rDock/src/rDock_2013.1_src//data/scripts/dock.prm

>  <Rbt.Receptor>
/home/ziqiaoxu/icml18-jtnn/VAEdesign/targets/RdRp-SARS-CoV-2/pocket_docking.prm

>  <SCORE>
-19.3768

>  <SCORE.INTER>
-18.763

>  <SCORE.INTER.CONST>
1

>  <SCORE.INTER.POLAR>
-0.955671

>  <SCORE.INTER.REPUL>
0

>  <SCORE.INTER.ROT>
6

>  <SCORE.INTER.VDW>
-26.9137

>  <SCORE.INTER.norm>
-0.815782

>  <SCORE.INTRA>
-0.613792

>  <SCORE.INTRA.DIHEDRAL>
-4.04594

>  <SCORE.INTRA.DIHEDRAL.0>
10.4791

>  <SCORE.INTRA.POLAR>
0

>  <SCORE.INTRA.POLAR.0>
0

>  <SCORE.INTRA.REPUL>
0

>  <SCORE.INTRA.REPUL.0>
0

>  <SCORE.INTRA.VDW>
1.40918

>  <SCORE.INTRA.VDW.0>
-1.00051

>  <SCORE.INTRA.norm>
-0.0266866

>  <SCORE.RESTR>
0

>  <SCORE.RESTR.CAVITY>
0

>  <SCORE.RESTR.norm>
0

>  <SCORE.SYSTEM>
0

>  <SCORE.SYSTEM.CONST>
0

>  <SCORE.SYSTEM.DIHEDRAL>
0

>  <SCORE.SYSTEM.norm>
0

>  <SCORE.heavy>
23

>  <SCORE.norm>
-0.842469

$$$$
design_8
 OpenBabel05252019093D

 23 25  0  0  0  0  0  0  0  0999 V2000
   41.7920  -44.3494   10.4315 N   0  0  0  0  0  0  0  0  0  0  0  0
   41.1186  -45.3091    9.6392 C   0  0  0  0  0  0  0  0  0  0  0  0
   39.8852  -45.8090   10.0000 C   0  0  0  0  0  0  0  0  0  0  0  0
   39.2698  -46.7325    9.2089 C   0  0  0  0  0  0  0  0  0  0  0  0
   39.8219  -47.2071    8.0414 C   0  0  0  0  0  0  0  0  0  0  0  0
   38.9711  -48.3772    7.1060 S   0  0  0  0  0  0  0  0  0  0  0  0
   38.4091  -49.4221    8.0274 O   0  0  0  0  0  0  0  0  0  0  0  0
   39.9989  -49.1031    6.2455 O   0  0  0  0  0  0  0  0  0  0  0  0
   37.7612  -47.7120    6.0831 N   0  0  0  0  0  0  0  0  0  0  0  0
   37.5003  -46.3326    6.4428 C   0  0  0  0  0  0  0  0  0  0  0  0
   36.3253  -45.6337    5.8284 C   0  0  0  0  0  0  0  0  0  0  0  0
   37.6982  -45.2565    5.4233 C   0  0  0  0  0  0  0  0  0  0  0  0
   41.0677  -46.6884    7.6967 C   0  0  0  0  0  0  0  0  0  0  0  0
   41.7348  -45.7560    8.4553 C   0  0  0  0  0  0  0  0  0  0  0  0
   43.0466  -45.1990    8.1079 C   0  0  0  0  0  0  0  0  0  0  0  0
   43.5674  -44.3977    8.9003 O   0  0  0  0  0  0  0  0  0  0  0  0
   43.6945  -45.5589    6.9181 N   0  0  0  0  0  0  0  0  0  0  0  0
   44.9406  -45.0994    6.4612 C   0  0  0  0  0  0  0  0  0  0  0  0
   45.4009  -45.5365    5.2242 C   0  0  0  0  0  0  0  0  0  0  0  0
   46.5878  -45.1267    4.6970 C   0  0  0  0  0  0  0  0  0  0  0  0
   47.3805  -44.2509    5.3878 C   0  0  0  0  0  0  0  0  0  0  0  0
   46.9504  -43.8042    6.6096 C   0  0  0  0  0  0  0  0  0  0  0  0
   45.7278  -44.2304    7.1451 C   0  0  0  0  0  0  0  0  0  0  0  0
  1  2  1  0  0  0  0
  2  3  2  0  0  0  0
  3  4  1  0  0  0  0
  4  5  2  0  0  0  0
  5  6  1  0  0  0  0
  5 13  1  0  0  0  0
  6  7  2  0  0  0  0
  6  8  2  0  0  0  0
  6  9  1  0  0  0  0
  9 10  1  0  0  0  0
 10 11  1  0  0  0  0
 11 12  1  0  0  0  0
 12 10  1  0  0  0  0
 13 14  2  0  0  0  0
 14 15  1  0  0  0  0
 14  2  1  0  0  0  0
 15 16  2  0  0  0  0
 15 17  1  0  0  0  0
 17 18  1  0  0  0  0
 18 19  2  0  0  0  0
 19 20  1  0  0  0  0
 20 21  2  0  0  0  0
 21 22  1  0  0  0  0
 22 23  2  0  0  0  0
 23 18  1  0  0  0  0
M  END
>  <CHROM.1>
-43.88789873,-13.00479599,-170.04857592,2.52934852,-177.69427850,41.45258688
-46.13113493,7.29995877,0.05829578,0.35807376,1.20218234

>  <Name>
design_8

>  <RI>
0

>  <Rbt.Current_Directory>
/home/ziqiaoxu/icml18-jtnn/VAEdesign

>  <Rbt.Executable>
rbdock ($Id: //depot/dev/client3/rdock/2013.1/src/exe/rbdock.cxx#4 $)

>  <Rbt.Library>
libRbt.so (2013.1, Build901 2013/11/27)

>  <Rbt.Parameter_File>
/export/apps/rDock/src/rDock_2013.1_src//data/scripts/dock.prm

>  <Rbt.Receptor>
/home/ziqiaoxu/icml18-jtnn/VAEdesign/targets/RdRp-SARS-CoV-2/pocket_docking.prm

>  <SCORE>
-19.5663

>  <SCORE.INTER>
-20.4713

>  <SCORE.INTER.CONST>
1

>  <SCORE.INTER.POLAR>
-1.29083

>  <SCORE.INTER.REPUL>
0.0862056

>  <SCORE.INTER.ROT>
5

>  <SCORE.INTER.VDW>
-26.9135

>  <SCORE.INTER.norm>
-0.890055

>  <SCORE.INTRA>
0.905014

>  <SCORE.INTRA.DIHEDRAL>
1.34745

>  <SCORE.INTRA.DIHEDRAL.0>
3.47816

>  <SCORE.INTRA.POLAR>
0

>  <SCORE.INTRA.POLAR.0>
0

>  <SCORE.INTRA.REPUL>
0

>  <SCORE.INTRA.REPUL.0>
0

>  <SCORE.INTRA.VDW>
0.231287

>  <SCORE.INTRA.VDW.0>
-0.0960902

>  <SCORE.INTRA.norm>
0.0393485

>  <SCORE.RESTR>
0

>  <SCORE.RESTR.CAVITY>
0

>  <SCORE.RESTR.norm>
0

>  <SCORE.SYSTEM>
0

>  <SCORE.SYSTEM.CONST>
0

>  <SCORE.SYSTEM.DIHEDRAL>
0

>  <SCORE.SYSTEM.norm>
0

>  <SCORE.heavy>
23

>  <SCORE.norm>
-0.850707

$$$$
design_12
 OpenBabel05252019093D

 25 28  0  0  0  0  0  0  0  0999 V2000
   38.7821  -49.0728    6.5202 C   0  0  0  0  0  0  0  0  0  0  0  0
   39.0659  -47.9880    7.4949 C   0  0  0  0  0  0  0  0  0  0  0  0
   38.1144  -47.6289    8.4078 C   0  0  0  0  0  0  0  0  0  0  0  0
   38.3467  -46.6398    9.3108 C   0  0  0  0  0  0  0  0  0  0  0  0
   39.5724  -45.9949    9.2924 C   0  0  0  0  0  0  0  0  0  0  0  0
   40.5630  -46.3206    8.3923 C   0  0  0  0  0  0  0  0  0  0  0  0
   41.8510  -45.6105    8.4038 C   0  0  0  0  0  0  0  0  0  0  0  0
   42.8731  -45.7298    7.5460 N   0  0  0  0  0  0  0  0  0  0  0  0
   43.8407  -44.9076    7.9211 C   0  0  0  0  0  0  0  0  0  0  0  0
   45.1763  -44.6375    7.3437 C   0  0  0  0  0  0  0  0  0  0  0  0
   45.3939  -45.2418    6.0815 N   0  0  0  0  0  0  0  0  0  0  0  0
   44.6740  -44.8086    4.9427 C   0  0  0  0  0  0  0  0  0  0  0  0
   43.8107  -43.8637    5.0300 O   0  0  0  0  0  0  0  0  0  0  0  0
   44.8446  -45.3834    3.5997 C   0  0  0  0  0  0  0  0  0  0  0  0
   45.9502  -46.1227    3.2412 C   0  0  0  0  0  0  0  0  0  0  0  0
   46.1091  -46.6652    1.9807 C   0  0  0  0  0  0  0  0  0  0  0  0
   45.1260  -46.4674    1.0266 C   0  0  0  0  0  0  0  0  0  0  0  0
   45.0121  -46.8662   -0.2515 N   0  0  0  0  0  0  0  0  0  0  0  0
   43.8575  -46.4066   -0.7430 C   0  0  0  0  0  0  0  0  0  0  0  0
   43.2593  -45.7208    0.2422 N   0  0  0  0  0  0  0  0  0  0  0  0
   44.0088  -45.7333    1.3530 C   0  0  0  0  0  0  0  0  0  0  0  0
   43.8903  -45.2100    2.6223 C   0  0  0  0  0  0  0  0  0  0  0  0
   43.3829  -44.2662    9.0516 C   0  0  0  0  0  0  0  0  0  0  0  0
   42.1984  -44.7182    9.2964 O   0  0  0  0  0  0  0  0  0  0  0  0
   40.2948  -47.3278    7.4909 C   0  0  0  0  0  0  0  0  0  0  0  0
  1  2  1  0  0  0  0
  2  3  2  0  0  0  0
  3  4  1  0  0  0  0
  4  5  2  0  0  0  0
  5  6  1  0  0  0  0
  6  7  1  0  0  0  0
  6 25  2  0  0  0  0
  7  8  2  0  0  0  0
  8  9  1  0  0  0  0
  9 10  1  0  0  0  0
  9 23  2  0  0  0  0
 10 11  1  0  0  0  0
 11 12  1  0  0  0  0
 12 13  2  0  0  0  0
 12 14  1  0  0  0  0
 14 15  2  0  0  0  0
 15 16  1  0  0  0  0
 16 17  2  0  0  0  0
 17 18  1  0  0  0  0
 18 19  1  0  0  0  0
 19 20  2  0  0  0  0
 20 21  1  0  0  0  0
 21 22  2  0  0  0  0
 21 17  1  0  0  0  0
 22 14  1  0  0  0  0
 23 24  1  0  0  0  0
 24  7  1  0  0  0  0
 25  2  1  0  0  0  0
M  END
>  <CHROM.1>
-174.54597768,8.80671117,67.80071715,-18.33085349,42.81625591,-45.96314463
5.42713496,2.22278973,0.48734178,1.29119274

>  <Name>
design_12

>  <RI>
0

>  <Rbt.Current_Directory>
/home/ziqiaoxu/icml18-jtnn/VAEdesign

>  <Rbt.Executable>
rbdock ($Id: //depot/dev/client3/rdock/2013.1/src/exe/rbdock.cxx#4 $)

>  <Rbt.Library>
libRbt.so (2013.1, Build901 2013/11/27)

>  <Rbt.Parameter_File>
/export/apps/rDock/src/rDock_2013.1_src//data/scripts/dock.prm

>  <Rbt.Receptor>
/home/ziqiaoxu/icml18-jtnn/VAEdesign/targets/RdRp-SARS-CoV-2/pocket_docking.prm

>  <SCORE>
-18.7588

>  <SCORE.INTER>
-20.0751

>  <SCORE.INTER.CONST>
1

>  <SCORE.INTER.POLAR>
-0.75615

>  <SCORE.INTER.REPUL>
0

>  <SCORE.INTER.ROT>
4

>  <SCORE.INTER.VDW>
-26.9042

>  <SCORE.INTER.norm>
-0.803003

>  <SCORE.INTRA>
1.31627

>  <SCORE.INTRA.DIHEDRAL>
3.42087

>  <SCORE.INTRA.DIHEDRAL.0>
1.49635

>  <SCORE.INTRA.POLAR>
0

>  <SCORE.INTRA.POLAR.0>
0

>  <SCORE.INTRA.REPUL>
0

>  <SCORE.INTRA.REPUL.0>
0

>  <SCORE.INTRA.VDW>
-0.394163

>  <SCORE.INTRA.VDW.0>
-1.04817

>  <SCORE.INTRA.norm>
0.0526508

>  <SCORE.RESTR>
0

>  <SCORE.RESTR.CAVITY>
0

>  <SCORE.RESTR.norm>
0

>  <SCORE.SYSTEM>
0

>  <SCORE.SYSTEM.CONST>
0

>  <SCORE.SYSTEM.DIHEDRAL>
0

>  <SCORE.SYSTEM.norm>
0

>  <SCORE.heavy>
25

>  <SCORE.norm>
-0.750352

$$$$
design_17
 OpenBabel05252019093D

 23 25  0  0  0  0  0  0  0  0999 V2000
   41.6462  -44.4758   10.6615 N   0  0  0  0  0  0  0  0  0  0  0  0
   41.0415  -45.3949    9.7623 C   0  0  0  0  0  0  0  0  0  0  0  0
   39.8278  -45.9663   10.0696 C   0  0  0  0  0  0  0  0  0  0  0  0
   39.2165  -46.8593    9.2204 C   0  0  0  0  0  0  0  0  0  0  0  0
   39.8234  -47.1905    8.0436 C   0  0  0  0  0  0  0  0  0  0  0  0
   39.1253  -48.2991    6.9265 S   0  0  0  0  0  0  0  0  0  0  0  0
   40.2055  -48.7068    5.9426 O   0  0  0  0  0  0  0  0  0  0  0  0
   38.7024  -49.5604    7.6275 O   0  0  0  0  0  0  0  0  0  0  0  0
   37.7472  -47.6760    6.1092 N   0  0  0  0  0  0  0  0  0  0  0  0
   37.7738  -46.2589    5.9439 C   0  0  0  0  0  0  0  0  0  0  0  0
   37.3430  -45.7515    4.5936 C   0  0  0  0  0  0  0  0  0  0  0  0
   36.4945  -45.4957    5.7710 C   0  0  0  0  0  0  0  0  0  0  0  0
   41.0536  -46.6071    7.7393 C   0  0  0  0  0  0  0  0  0  0  0  0
   41.6913  -45.7120    8.5648 C   0  0  0  0  0  0  0  0  0  0  0  0
   42.9863  -45.0861    8.2641 C   0  0  0  0  0  0  0  0  0  0  0  0
   43.3521  -44.2047    9.0715 O   0  0  0  0  0  0  0  0  0  0  0  0
   43.7381  -45.4580    7.1585 N   0  0  0  0  0  0  0  0  0  0  0  0
   44.9934  -44.9514    6.7303 C   0  0  0  0  0  0  0  0  0  0  0  0
   45.6663  -44.0342    7.5459 C   0  0  0  0  0  0  0  0  0  0  0  0
   46.8844  -43.5046    7.2231 C   0  0  0  0  0  0  0  0  0  0  0  0
   47.4858  -43.8870    6.0391 C   0  0  0  0  0  0  0  0  0  0  0  0
   46.8294  -44.7849    5.2390 C   0  0  0  0  0  0  0  0  0  0  0  0
   45.5902  -45.3245    5.5665 C   0  0  0  0  0  0  0  0  0  0  0  0
  1  2  1  0  0  0  0
  2  3  2  0  0  0  0
  3  4  1  0  0  0  0
  4  5  2  0  0  0  0
  5  6  1  0  0  0  0
  5 13  1  0  0  0  0
  6  7  2  0  0  0  0
  6  8  2  0  0  0  0
  6  9  1  0  0  0  0
  9 10  1  0  0  0  0
 10 11  1  0  0  0  0
 11 12  1  0  0  0  0
 12 10  1  0  0  0  0
 13 14  2  0  0  0  0
 14 15  1  0  0  0  0
 14  2  1  0  0  0  0
 15 16  2  0  0  0  0
 15 17  1  0  0  0  0
 17 18  1  0  0  0  0
 18 19  2  0  0  0  0
 19 20  1  0  0  0  0
 20 21  2  0  0  0  0
 21 22  1  0  0  0  0
 22 23  2  0  0  0  0
 23 18  1  0  0  0  0
M  END
>  <CHROM.1>
-165.22521760,29.37118021,137.05981649,-6.39368648,6.01299109,41.48390720
-46.05914613,7.35232376,0.12413056,0.36262880,1.29418805

>  <Name>
design_17

>  <RI>
0

>  <Rbt.Current_Directory>
/home/ziqiaoxu/icml18-jtnn/VAEdesign

>  <Rbt.Executable>
rbdock ($Id: //depot/dev/client3/rdock/2013.1/src/exe/rbdock.cxx#4 $)

>  <Rbt.Library>
libRbt.so (2013.1, Build901 2013/11/27)

>  <Rbt.Parameter_File>
/export/apps/rDock/src/rDock_2013.1_src//data/scripts/dock.prm

>  <Rbt.Receptor>
/home/ziqiaoxu/icml18-jtnn/VAEdesign/targets/RdRp-SARS-CoV-2/pocket_docking.prm

>  <SCORE>
-19.7001

>  <SCORE.INTER>
-20.2514

>  <SCORE.INTER.CONST>
1

>  <SCORE.INTER.POLAR>
-1.20508

>  <SCORE.INTER.REPUL>
0.0696569

>  <SCORE.INTER.ROT>
5

>  <SCORE.INTER.VDW>
-26.9024

>  <SCORE.INTER.norm>
-0.880497

>  <SCORE.INTRA>
0.551315

>  <SCORE.INTRA.DIHEDRAL>
0.743765

>  <SCORE.INTRA.DIHEDRAL.0>
2.96204

>  <SCORE.INTRA.POLAR>
0

>  <SCORE.INTRA.POLAR.0>
0

>  <SCORE.INTRA.REPUL>
0

>  <SCORE.INTRA.REPUL.0>
0

>  <SCORE.INTRA.VDW>
0.179433

>  <SCORE.INTRA.VDW.0>
0.189037

>  <SCORE.INTRA.norm>
0.0239702

>  <SCORE.RESTR>
0

>  <SCORE.RESTR.CAVITY>
0

>  <SCORE.RESTR.norm>
0

>  <SCORE.SYSTEM>
0

>  <SCORE.SYSTEM.CONST>
0

>  <SCORE.SYSTEM.DIHEDRAL>
0

>  <SCORE.SYSTEM.norm>
0

>  <SCORE.heavy>
23

>  <SCORE.norm>
-0.856526

$$$$
design_8
 OpenBabel05252019093D

 23 25  0  0  0  0  0  0  0  0999 V2000
   47.0257  -43.9428    6.6509 O   0  0  0  0  0  0  0  0  0  0  0  0
   45.9381  -44.5666    6.5124 C   0  0  0  0  0  0  0  0  0  0  0  0
   45.7262  -45.2758    5.3266 N   0  0  0  0  0  0  0  0  0  0  0  0
   46.6948  -45.3270    4.2541 C   0  0  0  0  0  0  0  0  0  0  0  0
   46.8449  -46.7250    3.7584 C   0  0  0  0  0  0  0  0  0  0  0  0
   47.0964  -46.8483    2.2799 C   0  0  0  0  0  0  0  0  0  0  0  0
   45.8952  -46.5199    1.4653 C   0  0  0  0  0  0  0  0  0  0  0  0
   46.0033  -46.6668    0.0911 C   0  0  0  0  0  0  0  0  0  0  0  0
   44.9717  -46.4017   -0.7524 C   0  0  0  0  0  0  0  0  0  0  0  0
   43.7636  -45.9716   -0.2717 C   0  0  0  0  0  0  0  0  0  0  0  0
   43.6395  -45.8200    1.0976 C   0  0  0  0  0  0  0  0  0  0  0  0
   44.7041  -46.0940    1.9638 C   0  0  0  0  0  0  0  0  0  0  0  0
   44.8862  -44.5695    7.5617 C   0  0  0  0  0  0  0  0  0  0  0  0
   45.0123  -43.8402    8.7194 C   0  0  0  0  0  0  0  0  0  0  0  0
   43.5468  -44.2177    9.5229 S   0  0  0  0  0  0  0  0  0  0  0  0
   42.8828  -45.2606    8.3524 C   0  0  0  0  0  0  0  0  0  0  0  0
   41.5834  -45.9685    8.4077 C   0  0  0  0  0  0  0  0  0  0  0  0
   41.1970  -46.7897    7.4253 N   0  0  0  0  0  0  0  0  0  0  0  0
   40.0029  -47.4212    7.5074 C   0  0  0  0  0  0  0  0  0  0  0  0
   39.1646  -47.2384    8.5893 C   0  0  0  0  0  0  0  0  0  0  0  0
   39.5870  -46.3875    9.5869 C   0  0  0  0  0  0  0  0  0  0  0  0
   40.7757  -45.7865    9.4598 N   0  0  0  0  0  0  0  0  0  0  0  0
   43.7998  -45.2704    7.4162 N   0  0  0  0  0  0  0  0  0  0  0  0
  1  2  2  0  0  0  0
  2  3  1  0  0  0  0
  2 13  1  0  0  0  0
  3  4  1  0  0  0  0
  4  5  1  0  0  0  0
  5  6  1  0  0  0  0
  6  7  1  0  0  0  0
  7  8  2  0  0  0  0
  8  9  1  0  0  0  0
  9 10  2  0  0  0  0
 10 11  1  0  0  0  0
 11 12  2  0  0  0  0
 12  7  1  0  0  0  0
 13 14  2  0  0  0  0
 14 15  1  0  0  0  0
 15 16  1  0  0  0  0
 16 17  1  0  0  0  0
 16 23  2  0  0  0  0
 17 18  2  0  0  0  0
 18 19  1  0  0  0  0
 19 20  2  0  0  0  0
 20 21  1  0  0  0  0
 21 22  2  0  0  0  0
 22 17  1  0  0  0  0
 23 13  1  0  0  0  0
M  END
>  <CHROM.1>
134.73102353,145.06548820,-71.33963616,-176.90474380,3.10965275,-178.31190798
43.96277159,-45.68138289,5.67154943,-1.06659646,0.35648986,1.30412946

>  <Name>
design_8

>  <RI>
0

>  <Rbt.Current_Directory>
/home/ziqiaoxu/icml18-jtnn/VAEdesign

>  <Rbt.Executable>
rbdock ($Id: //depot/dev/client3/rdock/2013.1/src/exe/rbdock.cxx#4 $)

>  <Rbt.Library>
libRbt.so (2013.1, Build901 2013/11/27)

>  <Rbt.Parameter_File>
/export/apps/rDock/src/rDock_2013.1_src//data/scripts/dock.prm

>  <Rbt.Receptor>
/home/ziqiaoxu/icml18-jtnn/VAEdesign/targets/RdRp-SARS-CoV-2/pocket_docking.prm

>  <SCORE>
-12.6716

>  <SCORE.INTER>
-15.4972

>  <SCORE.INTER.CONST>
1

>  <SCORE.INTER.POLAR>
0

>  <SCORE.INTER.REPUL>
0

>  <SCORE.INTER.ROT>
6

>  <SCORE.INTER.VDW>
-26.8972

>  <SCORE.INTER.norm>
-0.673793

>  <SCORE.INTRA>
2.82565

>  <SCORE.INTRA.DIHEDRAL>
3.98306

>  <SCORE.INTRA.DIHEDRAL.0>
1.9185

>  <SCORE.INTRA.POLAR>
0

>  <SCORE.INTRA.POLAR.0>
0

>  <SCORE.INTRA.REPUL>
0

>  <SCORE.INTRA.REPUL.0>
0

>  <SCORE.INTRA.VDW>
0.83412

>  <SCORE.INTRA.VDW.0>
-1.23799

>  <SCORE.INTRA.norm>
0.122854

>  <SCORE.RESTR>
0

>  <SCORE.RESTR.CAVITY>
0

>  <SCORE.RESTR.norm>
0

>  <SCORE.SYSTEM>
0

>  <SCORE.SYSTEM.CONST>
0

>  <SCORE.SYSTEM.DIHEDRAL>
0

>  <SCORE.SYSTEM.norm>
0

>  <SCORE.heavy>
23

>  <SCORE.norm>
-0.550938

$$$$
design_5
 OpenBabel05252019093D

 24 26  0  0  0  0  0  0  0  0999 V2000
   40.2416  -45.4840   10.4623 N   0  0  0  0  0  0  0  0  0  0  0  0
   40.3832  -45.4004    9.0181 C   0  0  0  0  0  0  0  0  0  0  0  0
   40.7709  -44.2944    8.6291 O   0  0  0  0  0  0  0  0  0  0  0  0
   40.0809  -46.5426    8.1877 C   0  0  0  0  0  0  0  0  0  0  0  0
   39.1125  -47.4473    8.6625 C   0  0  0  0  0  0  0  0  0  0  0  0
   38.7001  -48.5350    7.9561 C   0  0  0  0  0  0  0  0  0  0  0  0
   39.2356  -48.7710    6.7418 C   0  0  0  0  0  0  0  0  0  0  0  0
   40.1853  -47.9007    6.2574 C   0  0  0  0  0  0  0  0  0  0  0  0
   40.6432  -46.7693    6.9441 C   0  0  0  0  0  0  0  0  0  0  0  0
   41.6585  -45.9624    6.4366 N   0  0  0  0  0  0  0  0  0  0  0  0
   42.7572  -45.4168    7.1246 C   0  0  0  0  0  0  0  0  0  0  0  0
   42.9905  -45.5888    8.3247 O   0  0  0  0  0  0  0  0  0  0  0  0
   43.7423  -44.5548    6.3760 C   0  0  0  0  0  0  0  0  0  0  0  0
   45.0725  -45.2106    6.4023 C   0  0  0  0  0  0  0  0  0  0  0  0
   45.6175  -45.5416    5.0676 C   0  0  0  0  0  0  0  0  0  0  0  0
   44.8112  -45.6073    3.9841 N   0  0  0  0  0  0  0  0  0  0  0  0
   45.5384  -45.9226    2.9054 C   0  0  0  0  0  0  0  0  0  0  0  0
   45.0539  -46.0990    1.5024 C   0  0  0  0  0  0  0  0  0  0  0  0
   45.8570  -46.5130    0.5024 C   0  0  0  0  0  0  0  0  0  0  0  0
   45.2955  -46.6356   -0.7394 C   0  0  0  0  0  0  0  0  0  0  0  0
   43.6790  -46.1753   -0.4838 S   0  0  0  0  0  0  0  0  0  0  0  0
   43.7471  -45.8384    1.1831 C   0  0  0  0  0  0  0  0  0  0  0  0
   46.7908  -46.0447    3.3584 N   0  0  0  0  0  0  0  0  0  0  0  0
   46.8009  -45.8144    4.6319 O   0  0  0  0  0  0  0  0  0  0  0  0
  1  2  1  0  0  0  0
  2  3  2  0  0  0  0
  2  4  1  0  0  0  0
  4  5  2  0  0  0  0
  5  6  1  0  0  0  0
  6  7  2  0  0  0  0
  7  8  1  0  0  0  0
  8  9  2  0  0  0  0
  9 10  1  0  0  0  0
  9  4  1  0  0  0  0
 10 11  1  0  0  0  0
 11 12  2  0  0  0  0
 11 13  1  0  0  0  0
 13 14  1  0  0  0  0
 14 15  1  0  0  0  0
 15 16  2  0  0  0  0
 16 17  1  0  0  0  0
 17 18  1  0  0  0  0
 17 23  2  0  0  0  0
 18 19  1  0  0  0  0
 19 20  2  0  0  0  0
 20 21  1  0  0  0  0
 21 22  1  0  0  0  0
 22 18  2  0  0  0  0
 23 24  1  0  0  0  0
 24 15  1  0  0  0  0
M  END
>  <CHROM.1>
28.99318244,40.07227656,-117.35288543,119.69535795,-18.64267443,-175.05581850
42.92324984,-46.13233116,5.15104103,-2.21013585,-0.39755210,-1.80979470

>  <Name>
design_5

>  <RI>
0

>  <Rbt.Current_Directory>
/home/ziqiaoxu/icml18-jtnn/VAEdesign

>  <Rbt.Executable>
rbdock ($Id: //depot/dev/client3/rdock/2013.1/src/exe/rbdock.cxx#4 $)

>  <Rbt.Library>
libRbt.so (2013.1, Build901 2013/11/27)

>  <Rbt.Parameter_File>
/export/apps/rDock/src/rDock_2013.1_src//data/scripts/dock.prm

>  <Rbt.Receptor>
/home/ziqiaoxu/icml18-jtnn/VAEdesign/targets/RdRp-SARS-CoV-2/pocket_docking.prm

>  <SCORE>
-13.8046

>  <SCORE.INTER>
-18.9622

>  <SCORE.INTER.CONST>
1

>  <SCORE.INTER.POLAR>
-1.0198

>  <SCORE.INTER.REPUL>
0

>  <SCORE.INTER.ROT>
6

>  <SCORE.INTER.VDW>
-26.8949

>  <SCORE.INTER.norm>
-0.790092

>  <SCORE.INTRA>
5.15758

>  <SCORE.INTRA.DIHEDRAL>
14.6363

>  <SCORE.INTRA.DIHEDRAL.0>
3.46871

>  <SCORE.INTRA.POLAR>
0

>  <SCORE.INTRA.POLAR.0>
0

>  <SCORE.INTRA.REPUL>
0

>  <SCORE.INTRA.REPUL.0>
0

>  <SCORE.INTRA.VDW>
-2.16056

>  <SCORE.INTRA.VDW.0>
0.817795

>  <SCORE.INTRA.norm>
0.214899

>  <SCORE.RESTR>
0

>  <SCORE.RESTR.CAVITY>
0

>  <SCORE.RESTR.norm>
0

>  <SCORE.SYSTEM>
0

>  <SCORE.SYSTEM.CONST>
0

>  <SCORE.SYSTEM.DIHEDRAL>
0

>  <SCORE.SYSTEM.norm>
0

>  <SCORE.heavy>
24

>  <SCORE.norm>
-0.575193

$$$$
design_10
 OpenBabel05252019093D

 26 28  0  0  0  0  0  0  0  0999 V2000
   48.4931  -43.1315    9.8512 C   0  0  0  0  0  0  0  0  0  0  0  0
   46.9837  -42.9001    9.9709 C   0  0  0  0  0  0  0  0  0  0  0  0
   46.9588  -41.4073   10.5097 C   0  0  0  0  0  0  0  0  0  0  0  0
   46.3648  -42.7980    8.6196 C   0  0  0  0  0  0  0  0  0  0  0  0
   45.8695  -44.0762    8.1605 N   0  0  0  0  0  0  0  0  0  0  0  0
   44.5083  -44.3426    7.8496 C   0  0  0  0  0  0  0  0  0  0  0  0
   43.6717  -43.4272    8.0694 O   0  0  0  0  0  0  0  0  0  0  0  0
   44.1561  -45.5814    7.3082 N   0  0  0  0  0  0  0  0  0  0  0  0
   42.8937  -46.0534    6.8598 C   0  0  0  0  0  0  0  0  0  0  0  0
   41.7983  -46.0436    7.8353 C   0  0  0  0  0  0  0  0  0  0  0  0
   41.7906  -45.3107    8.9928 C   0  0  0  0  0  0  0  0  0  0  0  0
   40.7127  -45.3859    9.8725 C   0  0  0  0  0  0  0  0  0  0  0  0
   40.7170  -44.7002   10.9514 O   0  0  0  0  0  0  0  0  0  0  0  0
   39.6508  -46.1544    9.6439 N   0  0  0  0  0  0  0  0  0  0  0  0
   39.6409  -46.8800    8.5083 C   0  0  0  0  0  0  0  0  0  0  0  0
   38.5023  -47.6604    8.2745 C   0  0  0  0  0  0  0  0  0  0  0  0
   38.4555  -48.3933    7.1105 C   0  0  0  0  0  0  0  0  0  0  0  0
   39.5078  -48.3629    6.1884 C   0  0  0  0  0  0  0  0  0  0  0  0
   40.6149  -47.5934    6.4345 C   0  0  0  0  0  0  0  0  0  0  0  0
   40.6787  -46.8514    7.5960 C   0  0  0  0  0  0  0  0  0  0  0  0
   46.3662  -43.7260   10.9684 C   0  0  0  0  0  0  0  0  0  0  0  0
   47.0151  -44.7045   11.6785 C   0  0  0  0  0  0  0  0  0  0  0  0
   46.2899  -45.4590   12.5853 C   0  0  0  0  0  0  0  0  0  0  0  0
   44.9656  -45.2343   12.7683 N   0  0  0  0  0  0  0  0  0  0  0  0
   44.2871  -44.2895   12.0978 C   0  0  0  0  0  0  0  0  0  0  0  0
   44.9949  -43.5325   11.1937 C   0  0  0  0  0  0  0  0  0  0  0  0
  1  2  1  0  0  0  0
  2  3  1  0  0  0  0
  2  4  1  0  0  0  0
  2 21  1  0  0  0  0
  4  5  1  0  0  0  0
  5  6  1  0  0  0  0
  6  7  2  0  0  0  0
  6  8  1  0  0  0  0
  8  9  1  0  0  0  0
  9 10  1  0  0  0  0
 10 11  2  0  0  0  0
 11 12  1  0  0  0  0
 12 13  2  0  0  0  0
 12 14  1  0  0  0  0
 14 15  1  0  0  0  0
 15 16  2  0  0  0  0
 16 17  1  0  0  0  0
 17 18  2  0  0  0  0
 18 19  1  0  0  0  0
 19 20  2  0  0  0  0
 20 10  1  0  0  0  0
 20 15  1  0  0  0  0
 21 22  2  0  0  0  0
 22 23  1  0  0  0  0
 23 24  2  0  0  0  0
 24 25  1  0  0  0  0
 25 26  2  0  0  0  0
 26 21  1  0  0  0  0
M  END
>  <CHROM.1>
93.30209304,119.25287812,-57.80544526,18.18568995,-5.02502729,43.35539560
-45.10435321,9.23655768,-0.39050357,-0.46556107,-1.66753007

>  <Name>
design_10

>  <RI>
0

>  <Rbt.Current_Directory>
/home/ziqiaoxu/icml18-jtnn/VAEdesign

>  <Rbt.Executable>
rbdock ($Id: //depot/dev/client3/rdock/2013.1/src/exe/rbdock.cxx#4 $)

>  <Rbt.Library>
libRbt.so (2013.1, Build901 2013/11/27)

>  <Rbt.Parameter_File>
/export/apps/rDock/src/rDock_2013.1_src//data/scripts/dock.prm

>  <Rbt.Receptor>
/home/ziqiaoxu/icml18-jtnn/VAEdesign/targets/RdRp-SARS-CoV-2/pocket_docking.prm

>  <SCORE>
-24.4191

>  <SCORE.INTER>
-23.1905

>  <SCORE.INTER.CONST>
1

>  <SCORE.INTER.POLAR>
-2.24993

>  <SCORE.INTER.REPUL>
0.190658

>  <SCORE.INTER.ROT>
5

>  <SCORE.INTER.VDW>
-26.8941

>  <SCORE.INTER.norm>
-0.891944

>  <SCORE.INTRA>
-1.22855

>  <SCORE.INTRA.DIHEDRAL>
1.07369

>  <SCORE.INTRA.DIHEDRAL.0>
4.57073

>  <SCORE.INTRA.POLAR>
0

>  <SCORE.INTRA.POLAR.0>
0

>  <SCORE.INTRA.REPUL>
0

>  <SCORE.INTRA.REPUL.0>
0

>  <SCORE.INTRA.VDW>
-1.7654

>  <SCORE.INTRA.VDW.0>
2.70728

>  <SCORE.INTRA.norm>
-0.047252

>  <SCORE.RESTR>
0

>  <SCORE.RESTR.CAVITY>
0

>  <SCORE.RESTR.norm>
0

>  <SCORE.SYSTEM>
0

>  <SCORE.SYSTEM.CONST>
0

>  <SCORE.SYSTEM.DIHEDRAL>
0

>  <SCORE.SYSTEM.norm>
0

>  <SCORE.heavy>
26

>  <SCORE.norm>
-0.939196

$$$$
design_12
 OpenBabel05252019093D

 23 25  0  0  0  0  0  0  0  0999 V2000
   44.2654  -46.2201   -0.3346 C   0  0  0  0  0  0  0  0  0  0  0  0
   44.7599  -45.9706    0.9456 O   0  0  0  0  0  0  0  0  0  0  0  0
   45.9326  -46.5115    1.4433 C   0  0  0  0  0  0  0  0  0  0  0  0
   46.7239  -47.2073    0.6178 N   0  0  0  0  0  0  0  0  0  0  0  0
   47.8820  -47.7674    1.0191 C   0  0  0  0  0  0  0  0  0  0  0  0
   48.2567  -47.6131    2.3263 C   0  0  0  0  0  0  0  0  0  0  0  0
   47.4372  -46.8880    3.1974 C   0  0  0  0  0  0  0  0  0  0  0  0
   46.2625  -46.3262    2.7689 C   0  0  0  0  0  0  0  0  0  0  0  0
   45.3202  -45.5451    3.5852 C   0  0  0  0  0  0  0  0  0  0  0  0
   45.4540  -45.6772    4.9993 N   0  0  0  0  0  0  0  0  0  0  0  0
   44.6492  -44.8533    5.8382 C   0  0  0  0  0  0  0  0  0  0  0  0
   43.8583  -44.0479    5.3070 O   0  0  0  0  0  0  0  0  0  0  0  0
   44.7378  -44.9390    7.3135 C   0  0  0  0  0  0  0  0  0  0  0  0
   43.3558  -45.2091    7.8774 C   0  0  0  0  0  0  0  0  0  0  0  0
   42.8927  -44.4626    8.9300 C   0  0  0  0  0  0  0  0  0  0  0  0
   41.3357  -45.1583    9.1642 S   0  0  0  0  0  0  0  0  0  0  0  0
   41.3864  -46.3264    7.9290 C   0  0  0  0  0  0  0  0  0  0  0  0
   40.3395  -47.3138    7.5507 C   0  0  0  0  0  0  0  0  0  0  0  0
   39.3625  -47.6681    8.3931 C   0  0  0  0  0  0  0  0  0  0  0  0
   38.4501  -48.5846    7.9456 C   0  0  0  0  0  0  0  0  0  0  0  0
   38.9833  -48.9235    6.3643 S   0  0  0  0  0  0  0  0  0  0  0  0
   40.3450  -47.8979    6.3110 C   0  0  0  0  0  0  0  0  0  0  0  0
   42.5839  -46.1283    7.4013 N   0  0  0  0  0  0  0  0  0  0  0  0
  1  2  1  0  0  0  0
  2  3  1  0  0  0  0
  3  4  2  0  0  0  0
  4  5  1  0  0  0  0
  5  6  2  0  0  0  0
  6  7  1  0  0  0  0
  7  8  2  0  0  0  0
  8  9  1  0  0  0  0
  8  3  1  0  0  0  0
  9 10  1  0  0  0  0
 10 11  1  0  0  0  0
 11 12  2  0  0  0  0
 11 13  1  0  0  0  0
 13 14  1  0  0  0  0
 14 15  2  0  0  0  0
 15 16  1  0  0  0  0
 16 17  1  0  0  0  0
 17 18  1  0  0  0  0
 17 23  2  0  0  0  0
 18 19  1  0  0  0  0
 19 20  2  0  0  0  0
 20 21  1  0  0  0  0
 21 22  1  0  0  0  0
 22 18  2  0  0  0  0
 23 14  1  0  0  0  0
M  END
>  <CHROM.1>
7.20816473,162.57552330,174.43393479,-124.80776607,-132.21731829,-20.16300881
43.32979128,-46.44509439,5.30098219,0.65869280,-0.49278305,-2.06643538

>  <Name>
design_12

>  <RI>
0

>  <Rbt.Current_Directory>
/home/ziqiaoxu/icml18-jtnn/VAEdesign

>  <Rbt.Executable>
rbdock ($Id: //depot/dev/client3/rdock/2013.1/src/exe/rbdock.cxx#4 $)

>  <Rbt.Library>
libRbt.so (2013.1, Build901 2013/11/27)

>  <Rbt.Parameter_File>
/export/apps/rDock/src/rDock_2013.1_src//data/scripts/dock.prm

>  <Rbt.Receptor>
/home/ziqiaoxu/icml18-jtnn/VAEdesign/targets/RdRp-SARS-CoV-2/pocket_docking.prm

>  <SCORE>
-18.9715

>  <SCORE.INTER>
-18.5153

>  <SCORE.INTER.CONST>
1

>  <SCORE.INTER.POLAR>
-0.894427

>  <SCORE.INTER.REPUL>
0.00376062

>  <SCORE.INTER.ROT>
6

>  <SCORE.INTER.VDW>
-26.893

>  <SCORE.INTER.norm>
-0.805012

>  <SCORE.INTRA>
-0.456231

>  <SCORE.INTRA.DIHEDRAL>
0.304943

>  <SCORE.INTRA.DIHEDRAL.0>
4.65675

>  <SCORE.INTRA.POLAR>
0

>  <SCORE.INTRA.POLAR.0>
0

>  <SCORE.INTRA.REPUL>
0

>  <SCORE.INTRA.REPUL.0>
0

>  <SCORE.INTRA.VDW>
-0.608703

>  <SCORE.INTRA.VDW.0>
-0.799432

>  <SCORE.INTRA.norm>
-0.0198361

>  <SCORE.RESTR>
0

>  <SCORE.RESTR.CAVITY>
0

>  <SCORE.RESTR.norm>
0

>  <SCORE.SYSTEM>
0

>  <SCORE.SYSTEM.CONST>
0

>  <SCORE.SYSTEM.DIHEDRAL>
0

>  <SCORE.SYSTEM.norm>
0

>  <SCORE.heavy>
23

>  <SCORE.norm>
-0.824848

$$$$
design_13
 OpenBabel05252019093D

 25 27  0  0  0  0  0  0  0  0999 V2000
   39.0305  -48.9627    6.7454 C   0  0  0  0  0  0  0  0  0  0  0  0
   38.4005  -47.6306    6.6257 C   0  0  0  0  0  0  0  0  0  0  0  0
   37.5087  -47.3948    5.5924 C   0  0  0  0  0  0  0  0  0  0  0  0
   36.8920  -46.1774    5.4296 C   0  0  0  0  0  0  0  0  0  0  0  0
   37.1707  -45.1771    6.3149 C   0  0  0  0  0  0  0  0  0  0  0  0
   38.0653  -45.4230    7.3472 C   0  0  0  0  0  0  0  0  0  0  0  0
   38.6958  -46.6216    7.5366 C   0  0  0  0  0  0  0  0  0  0  0  0
   39.6275  -46.9527    8.6103 C   0  0  0  0  0  0  0  0  0  0  0  0
   40.8731  -46.2677    8.6191 N   0  0  0  0  0  0  0  0  0  0  0  0
   41.7265  -46.2348    7.4922 C   0  0  0  0  0  0  0  0  0  0  0  0
   41.3498  -46.8612    6.4285 O   0  0  0  0  0  0  0  0  0  0  0  0
   43.0027  -45.5441    7.4423 C   0  0  0  0  0  0  0  0  0  0  0  0
   43.8817  -45.7117    6.3795 C   0  0  0  0  0  0  0  0  0  0  0  0
   45.0616  -45.0193    6.4267 C   0  0  0  0  0  0  0  0  0  0  0  0
   45.4140  -44.1811    7.4556 C   0  0  0  0  0  0  0  0  0  0  0  0
   46.5153  -43.5553    7.4649 O   0  0  0  0  0  0  0  0  0  0  0  0
   44.5662  -44.0246    8.4732 N   0  0  0  0  0  0  0  0  0  0  0  0
   44.8307  -43.1635    9.6318 C   0  0  0  0  0  0  0  0  0  0  0  0
   45.3767  -43.9711   10.7270 C   0  0  0  0  0  0  0  0  0  0  0  0
   46.6708  -44.4184   10.7216 C   0  0  0  0  0  0  0  0  0  0  0  0
   47.1677  -45.1772   11.7496 C   0  0  0  0  0  0  0  0  0  0  0  0
   46.3550  -45.4933   12.8013 C   0  0  0  0  0  0  0  0  0  0  0  0
   45.0566  -45.0650   12.8433 C   0  0  0  0  0  0  0  0  0  0  0  0
   44.5831  -44.3016   11.7925 C   0  0  0  0  0  0  0  0  0  0  0  0
   43.3847  -44.7088    8.4404 C   0  0  0  0  0  0  0  0  0  0  0  0
  1  2  1  0  0  0  0
  2  3  2  0  0  0  0
  3  4  1  0  0  0  0
  4  5  2  0  0  0  0
  5  6  1  0  0  0  0
  6  7  2  0  0  0  0
  7  8  1  0  0  0  0
  7  2  1  0  0  0  0
  8  9  1  0  0  0  0
  9 10  1  0  0  0  0
 10 11  2  0  0  0  0
 10 12  1  0  0  0  0
 12 13  1  0  0  0  0
 13 14  2  0  0  0  0
 14 15  1  0  0  0  0
 15 16  2  0  0  0  0
 15 17  1  0  0  0  0
 17 18  1  0  0  0  0
 17 25  1  0  0  0  0
 18 19  1  0  0  0  0
 19 20  2  0  0  0  0
 20 21  1  0  0  0  0
 21 22  2  0  0  0  0
 22 23  1  0  0  0  0
 23 24  2  0  0  0  0
 24 19  1  0  0  0  0
 25 12  2  0  0  0  0
M  END
>  <CHROM.1>
114.85157773,-53.31821464,170.35318429,-96.06721246,75.45235038,42.45683948
-45.52932979,8.34631576,2.72127794,-0.35857083,-1.44723275

>  <Name>
design_13

>  <RI>
0

>  <Rbt.Current_Directory>
/home/ziqiaoxu/icml18-jtnn/VAEdesign

>  <Rbt.Executable>
rbdock ($Id: //depot/dev/client3/rdock/2013.1/src/exe/rbdock.cxx#4 $)

>  <Rbt.Library>
libRbt.so (2013.1, Build901 2013/11/27)

>  <Rbt.Parameter_File>
/export/apps/rDock/src/rDock_2013.1_src//data/scripts/dock.prm

>  <Rbt.Receptor>
/home/ziqiaoxu/icml18-jtnn/VAEdesign/targets/RdRp-SARS-CoV-2/pocket_docking.prm

>  <SCORE>
-16.7402

>  <SCORE.INTER>
-16.4903

>  <SCORE.INTER.CONST>
1

>  <SCORE.INTER.POLAR>
0

>  <SCORE.INTER.REPUL>
0

>  <SCORE.INTER.ROT>
5

>  <SCORE.INTER.VDW>
-26.8903

>  <SCORE.INTER.norm>
-0.659611

>  <SCORE.INTRA>
-0.249948

>  <SCORE.INTRA.DIHEDRAL>
0.139097

>  <SCORE.INTRA.DIHEDRAL.0>
5.27009

>  <SCORE.INTRA.POLAR>
0

>  <SCORE.INTRA.POLAR.0>
0

>  <SCORE.INTRA.REPUL>
0

>  <SCORE.INTRA.REPUL.0>
0

>  <SCORE.INTRA.VDW>
-0.319497

>  <SCORE.INTRA.VDW.0>
-2.34224

>  <SCORE.INTRA.norm>
-0.00999793

>  <SCORE.RESTR>
0

>  <SCORE.RESTR.CAVITY>
0

>  <SCORE.RESTR.norm>
0

>  <SCORE.SYSTEM>
0

>  <SCORE.SYSTEM.CONST>
0

>  <SCORE.SYSTEM.DIHEDRAL>
0

>  <SCORE.SYSTEM.norm>
0

>  <SCORE.heavy>
25

>  <SCORE.norm>
-0.669609

$$$$
design_18
 OpenBabel05252019093D

 25 28  0  0  0  0  0  0  0  0999 V2000
   40.9245  -44.4301   10.6911 C   0  0  0  0  0  0  0  0  0  0  0  0
   40.5547  -45.4363    9.6605 C   0  0  0  0  0  0  0  0  0  0  0  0
   39.5334  -46.3086    9.7286 N   0  0  0  0  0  0  0  0  0  0  0  0
   39.4948  -47.0656    8.6230 C   0  0  0  0  0  0  0  0  0  0  0  0
   38.6134  -48.0821    8.2806 C   0  0  0  0  0  0  0  0  0  0  0  0
   38.8328  -48.6878    7.0536 C   0  0  0  0  0  0  0  0  0  0  0  0
   39.8689  -48.2877    6.2419 C   0  0  0  0  0  0  0  0  0  0  0  0
   40.7261  -47.2778    6.6077 C   0  0  0  0  0  0  0  0  0  0  0  0
   40.5244  -46.6622    7.8253 C   0  0  0  0  0  0  0  0  0  0  0  0
   41.1968  -45.6469    8.4558 C   0  0  0  0  0  0  0  0  0  0  0  0
   42.3682  -44.9380    7.9443 C   0  0  0  0  0  0  0  0  0  0  0  0
   42.7776  -43.8627    8.4848 O   0  0  0  0  0  0  0  0  0  0  0  0
   43.0662  -45.5054    6.7778 C   0  0  0  0  0  0  0  0  0  0  0  0
   44.8815  -45.3696    6.9570 S   0  0  0  0  0  0  0  0  0  0  0  0
   45.6289  -45.5200    5.3347 C   0  0  0  0  0  0  0  0  0  0  0  0
   46.9319  -45.2905    5.0905 N   0  0  0  0  0  0  0  0  0  0  0  0
   47.1407  -45.4935    3.7878 N   0  0  0  0  0  0  0  0  0  0  0  0
   45.9697  -45.8476    3.2291 C   0  0  0  0  0  0  0  0  0  0  0  0
   45.8099  -46.1545    1.7863 C   0  0  0  0  0  0  0  0  0  0  0  0
   46.9420  -46.8978    1.3187 N   0  0  0  0  0  0  0  0  0  0  0  0
   47.4786  -47.9808    1.8874 C   0  0  0  0  0  0  0  0  0  0  0  0
   48.5249  -48.3662    1.1293 N   0  0  0  0  0  0  0  0  0  0  0  0
   48.6422  -47.5178    0.0802 C   0  0  0  0  0  0  0  0  0  0  0  0
   47.6403  -46.6274    0.2420 N   0  0  0  0  0  0  0  0  0  0  0  0
   45.0795  -45.8541    4.1885 O   0  0  0  0  0  0  0  0  0  0  0  0
  1  2  1  0  0  0  0
  2  3  1  0  0  0  0
  3  4  1  0  0  0  0
  4  5  2  0  0  0  0
  5  6  1  0  0  0  0
  6  7  2  0  0  0  0
  7  8  1  0  0  0  0
  8  9  2  0  0  0  0
  9 10  1  0  0  0  0
  9  4  1  0  0  0  0
 10 11  1  0  0  0  0
 10  2  2  0  0  0  0
 11 12  2  0  0  0  0
 11 13  1  0  0  0  0
 13 14  1  0  0  0  0
 14 15  1  0  0  0  0
 15 16  2  0  0  0  0
 16 17  1  0  0  0  0
 17 18  2  0  0  0  0
 18 19  1  0  0  0  0
 18 25  1  0  0  0  0
 19 20  1  0  0  0  0
 20 21  1  0  0  0  0
 21 22  2  0  0  0  0
 22 23  1  0  0  0  0
 23 24  2  0  0  0  0
 24 20  1  0  0  0  0
 25 15  1  0  0  0  0
M  END
>  <CHROM.1>
-12.92766089,-139.59108764,-160.18983771,170.97608361,39.70549468,49.09807521
43.68840838,-46.28358833,5.70444324,-2.52082516,-0.48869823,-2.22672762

>  <Name>
design_18

>  <RI>
0

>  <Rbt.Current_Directory>
/home/ziqiaoxu/icml18-jtnn/VAEdesign

>  <Rbt.Executable>
rbdock ($Id: //depot/dev/client3/rdock/2013.1/src/exe/rbdock.cxx#4 $)

>  <Rbt.Library>
libRbt.so (2013.1, Build901 2013/11/27)

>  <Rbt.Parameter_File>
/export/apps/rDock/src/rDock_2013.1_src//data/scripts/dock.prm

>  <Rbt.Receptor>
/home/ziqiaoxu/icml18-jtnn/VAEdesign/targets/RdRp-SARS-CoV-2/pocket_docking.prm

>  <SCORE>
-24.1419

>  <SCORE.INTER>
-18.6368

>  <SCORE.INTER.CONST>
1

>  <SCORE.INTER.POLAR>
-0.926916

>  <SCORE.INTER.REPUL>
0

>  <SCORE.INTER.ROT>
6

>  <SCORE.INTER.VDW>
-26.8853

>  <SCORE.INTER.norm>
-0.745471

>  <SCORE.INTRA>
-5.5051

>  <SCORE.INTRA.DIHEDRAL>
-15.8862

>  <SCORE.INTRA.DIHEDRAL.0>
21.6327

>  <SCORE.INTRA.POLAR>
0

>  <SCORE.INTRA.POLAR.0>
0

>  <SCORE.INTRA.REPUL>
0

>  <SCORE.INTRA.REPUL.0>
0

>  <SCORE.INTRA.VDW>
2.43801

>  <SCORE.INTRA.VDW.0>
-2.67509

>  <SCORE.INTRA.norm>
-0.220204

>  <SCORE.RESTR>
0

>  <SCORE.RESTR.CAVITY>
0

>  <SCORE.RESTR.norm>
0

>  <SCORE.SYSTEM>
0

>  <SCORE.SYSTEM.CONST>
0

>  <SCORE.SYSTEM.DIHEDRAL>
0

>  <SCORE.SYSTEM.norm>
0

>  <SCORE.heavy>
25

>  <SCORE.norm>
-0.965676

$$$$
design_0
 OpenBabel05252019093D

 23 25  0  0  0  0  0  0  0  0999 V2000
   40.2095  -36.2965    4.0352 C   0  0  0  0  0  0  0  0  0  0  0  0
   39.9443  -37.7749    4.0480 C   0  0  0  0  0  0  0  0  0  0  0  0
   39.7768  -38.4038    2.9824 O   0  0  0  0  0  0  0  0  0  0  0  0
   39.8860  -38.4628    5.3323 C   0  0  0  0  0  0  0  0  0  0  0  0
   40.0237  -37.7752    6.5122 C   0  0  0  0  0  0  0  0  0  0  0  0
   39.9725  -38.4186    7.7623 C   0  0  0  0  0  0  0  0  0  0  0  0
   39.7823  -39.7654    7.8405 C   0  0  0  0  0  0  0  0  0  0  0  0
   39.7372  -40.5515    9.0093 N   0  0  0  0  0  0  0  0  0  0  0  0
   39.9229  -41.9491    9.1100 C   0  0  0  0  0  0  0  0  0  0  0  0
   40.1544  -42.6255    8.0866 O   0  0  0  0  0  0  0  0  0  0  0  0
   39.8372  -42.5994   10.4562 C   0  0  0  0  0  0  0  0  0  0  0  0
   40.9874  -43.9814   10.5889 S   0  0  0  0  0  0  0  0  0  0  0  0
   40.4370  -45.3070    9.5133 C   0  0  0  0  0  0  0  0  0  0  0  0
   40.8738  -45.5339    8.2928 N   0  0  0  0  0  0  0  0  0  0  0  0
   40.3984  -46.5267    7.6018 C   0  0  0  0  0  0  0  0  0  0  0  0
   40.7692  -46.8877    6.2880 C   0  0  0  0  0  0  0  0  0  0  0  0
   40.1850  -47.9514    5.6904 C   0  0  0  0  0  0  0  0  0  0  0  0
   39.2218  -48.7543    6.2587 C   0  0  0  0  0  0  0  0  0  0  0  0
   38.8471  -48.4081    7.5552 C   0  0  0  0  0  0  0  0  0  0  0  0
   39.4410  -47.3105    8.1900 C   0  0  0  0  0  0  0  0  0  0  0  0
   39.2868  -46.5513    9.7273 S   0  0  0  0  0  0  0  0  0  0  0  0
   39.6439  -40.4450    6.6247 C   0  0  0  0  0  0  0  0  0  0  0  0
   39.6943  -39.8112    5.4044 C   0  0  0  0  0  0  0  0  0  0  0  0
  1  2  1  0  0  0  0
  2  3  2  0  0  0  0
  2  4  1  0  0  0  0
  4  5  2  0  0  0  0
  5  6  1  0  0  0  0
  6  7  2  0  0  0  0
  7  8  1  0  0  0  0
  7 22  1  0  0  0  0
  8  9  1  0  0  0  0
  9 10  2  0  0  0  0
  9 11  1  0  0  0  0
 11 12  1  0  0  0  0
 12 13  1  0  0  0  0
 13 14  2  0  0  0  0
 14 15  1  0  0  0  0
 15 16  2  0  0  0  0
 16 17  1  0  0  0  0
 17 18  2  0  0  0  0
 18 19  1  0  0  0  0
 19 20  2  0  0  0  0
 20 21  1  0  0  0  0
 20 15  1  0  0  0  0
 21 13  1  0  0  0  0
 22 23  2  0  0  0  0
 23  4  1  0  0  0  0
M  END
>  <CHROM.1>
2.20657076,-160.38017795,-145.44153964,-68.77365405,96.40118874,39.97959954
-42.90850799,7.55357643,1.48608552,-1.49344840,-0.40977741

>  <Name>
design_0

>  <RI>
0

>  <Rbt.Current_Directory>
/home/ziqiaoxu/icml18-jtnn/VAEdesign

>  <Rbt.Executable>
rbdock ($Id: //depot/dev/client3/rdock/2013.1/src/exe/rbdock.cxx#4 $)

>  <Rbt.Library>
libRbt.so (2013.1, Build901 2013/11/27)

>  <Rbt.Parameter_File>
/export/apps/rDock/src/rDock_2013.1_src//data/scripts/dock.prm

>  <Rbt.Receptor>
/home/ziqiaoxu/icml18-jtnn/VAEdesign/targets/RdRp-SARS-CoV-2/pocket_docking.prm

>  <SCORE>
-17.0207

>  <SCORE.INTER>
-19.7428

>  <SCORE.INTER.CONST>
1

>  <SCORE.INTER.POLAR>
-0.959166

>  <SCORE.INTER.REPUL>
0

>  <SCORE.INTER.ROT>
5

>  <SCORE.INTER.VDW>
-26.8816

>  <SCORE.INTER.norm>
-0.858382

>  <SCORE.INTRA>
2.72211

>  <SCORE.INTRA.DIHEDRAL>
4.32097

>  <SCORE.INTRA.DIHEDRAL.0>
2.43298

>  <SCORE.INTRA.POLAR>
0

>  <SCORE.INTRA.POLAR.0>
0

>  <SCORE.INTRA.REPUL>
0

>  <SCORE.INTRA.REPUL.0>
0

>  <SCORE.INTRA.VDW>
0.561622

>  <SCORE.INTRA.VDW.0>
0.394704

>  <SCORE.INTRA.norm>
0.118352

>  <SCORE.RESTR>
0

>  <SCORE.RESTR.CAVITY>
0

>  <SCORE.RESTR.norm>
0

>  <SCORE.SYSTEM>
0

>  <SCORE.SYSTEM.CONST>
0

>  <SCORE.SYSTEM.DIHEDRAL>
0

>  <SCORE.SYSTEM.norm>
0

>  <SCORE.heavy>
23

>  <SCORE.norm>
-0.740029

$$$$
design_16
 OpenBabel05252019093D

 26 29  0  0  0  0  0  0  0  0999 V2000
   44.1237  -44.3677    3.7538 O   0  0  0  0  0  0  0  0  0  0  0  0
   45.0041  -45.2083    4.1472 C   0  0  0  0  0  0  0  0  0  0  0  0
   45.1085  -45.3972    5.5406 N   0  0  0  0  0  0  0  0  0  0  0  0
   44.3407  -44.7209    6.5269 C   0  0  0  0  0  0  0  0  0  0  0  0
   44.6072  -45.0077    7.9585 C   0  0  0  0  0  0  0  0  0  0  0  0
   43.5202  -44.4942    8.8449 C   0  0  0  0  0  0  0  0  0  0  0  0
   42.3004  -45.2995    8.6135 N   0  0  0  0  0  0  0  0  0  0  0  0
   42.0345  -46.0832    7.5849 N   0  0  0  0  0  0  0  0  0  0  0  0
   40.8064  -46.6444    7.7532 C   0  0  0  0  0  0  0  0  0  0  0  0
   40.3075  -46.1929    8.9145 N   0  0  0  0  0  0  0  0  0  0  0  0
   41.2447  -45.3611    9.4353 C   0  0  0  0  0  0  0  0  0  0  0  0
   41.1255  -44.7435   10.5325 O   0  0  0  0  0  0  0  0  0  0  0  0
   38.9858  -46.6036    9.4068 C   0  0  0  0  0  0  0  0  0  0  0  0
   38.1496  -47.0354    8.1991 C   0  0  0  0  0  0  0  0  0  0  0  0
   38.9217  -48.2090    7.5799 C   0  0  0  0  0  0  0  0  0  0  0  0
   40.1039  -47.5822    6.8576 C   0  0  0  0  0  0  0  0  0  0  0  0
   45.8010  -45.8706    3.1432 C   0  0  2  0  0  0  0  0  0  0  0  0
   47.1405  -45.1430    2.9159 C   0  0  0  0  0  0  0  0  0  0  0  0
   48.0768  -46.1307    2.2906 C   0  0  0  0  0  0  0  0  0  0  0  0
   47.4759  -46.9561    1.2114 C   0  0  0  0  0  0  0  0  0  0  0  0
   46.0852  -46.5932    0.8441 C   0  0  0  0  0  0  0  0  0  0  0  0
   45.6680  -46.8114   -0.4534 C   0  0  0  0  0  0  0  0  0  0  0  0
   44.3797  -46.4929   -0.8250 C   0  0  0  0  0  0  0  0  0  0  0  0
   43.5293  -45.9588    0.1157 C   0  0  0  0  0  0  0  0  0  0  0  0
   43.9653  -45.7423    1.4290 C   0  0  0  0  0  0  0  0  0  0  0  0
   45.2452  -46.0577    1.8013 C   0  0  0  0  0  0  0  0  0  0  0  0
  1  2  2  0  0  0  0
  2  3  1  0  0  0  0
  3  4  1  0  0  0  0
  4  5  1  0  0  0  0
  5  6  1  0  0  0  0
  6  7  1  0  0  0  0
  7  8  1  0  0  0  0
  8  9  2  0  0  0  0
  9 10  1  0  0  0  0
 10 11  1  0  0  0  0
 10 13  1  0  0  0  0
 11 12  2  0  0  0  0
 11  7  1  0  0  0  0
 13 14  1  0  0  0  0
 14 15  1  0  0  0  0
 15 16  1  0  0  0  0
 16  9  1  0  0  0  0
 17  2  1  1  0  0  0
 17 18  1  0  0  0  0
 18 19  1  0  0  0  0
 19 20  1  0  0  0  0
 20 21  1  0  0  0  0
 21 22  2  0  0  0  0
 22 23  1  0  0  0  0
 23 24  2  0  0  0  0
 24 25  1  0  0  0  0
 25 26  2  0  0  0  0
 26 17  1  0  0  0  0
 26 21  1  0  0  0  0
M  END
>  <CHROM.1>
-178.08125717,-165.87190656,69.05901426,-17.49982685,94.97883566,43.35882345
-45.93144136,5.25596182,-0.90209721,0.35761098,1.30617636

>  <Name>
design_16

>  <RI>
0

>  <Rbt.Current_Directory>
/home/ziqiaoxu/icml18-jtnn/VAEdesign

>  <Rbt.Executable>
rbdock ($Id: //depot/dev/client3/rdock/2013.1/src/exe/rbdock.cxx#4 $)

>  <Rbt.Library>
libRbt.so (2013.1, Build901 2013/11/27)

>  <Rbt.Parameter_File>
/export/apps/rDock/src/rDock_2013.1_src//data/scripts/dock.prm

>  <Rbt.Receptor>
/home/ziqiaoxu/icml18-jtnn/VAEdesign/targets/RdRp-SARS-CoV-2/pocket_docking.prm

>  <SCORE>
-18.3206

>  <SCORE.INTER>
-19.521

>  <SCORE.INTER.CONST>
1

>  <SCORE.INTER.POLAR>
-0.894427

>  <SCORE.INTER.REPUL>
0

>  <SCORE.INTER.ROT>
5

>  <SCORE.INTER.VDW>
-26.88

>  <SCORE.INTER.norm>
-0.750809

>  <SCORE.INTRA>
1.20039

>  <SCORE.INTRA.DIHEDRAL>
1.62936

>  <SCORE.INTRA.DIHEDRAL.0>
4.39453

>  <SCORE.INTRA.POLAR>
0

>  <SCORE.INTRA.POLAR.0>
0

>  <SCORE.INTRA.REPUL>
0

>  <SCORE.INTRA.REPUL.0>
0

>  <SCORE.INTRA.VDW>
0.385711

>  <SCORE.INTRA.VDW.0>
-0.498236

>  <SCORE.INTRA.norm>
0.0461689

>  <SCORE.RESTR>
0

>  <SCORE.RESTR.CAVITY>
0

>  <SCORE.RESTR.norm>
0

>  <SCORE.SYSTEM>
0

>  <SCORE.SYSTEM.CONST>
0

>  <SCORE.SYSTEM.DIHEDRAL>
0

>  <SCORE.SYSTEM.norm>
0

>  <SCORE.heavy>
26

>  <SCORE.norm>
-0.70464

$$$$
design_3
 OpenBabel05252019093D

 26 28  0  0  0  0  0  0  0  0999 V2000
   39.2289  -45.1855    6.8271 C   0  0  0  0  0  0  0  0  0  0  0  0
   40.1907  -46.2473    7.2846 C   0  0  2  0  0  0  0  0  0  0  0  0
   40.3323  -47.3874    6.3309 C   0  0  0  0  0  0  0  0  0  0  0  0
   39.0895  -48.2410    6.2531 C   0  0  0  0  0  0  0  0  0  0  0  0
   38.6205  -48.6907    7.6166 C   0  0  0  0  0  0  0  0  0  0  0  0
   38.4757  -47.4989    8.5659 C   0  0  0  0  0  0  0  0  0  0  0  0
   39.7972  -46.8242    8.6382 C   0  0  2  0  0  0  0  0  0  0  0  0
   39.8994  -45.8288    9.6811 N   0  0  0  0  0  0  0  0  0  0  0  0
   41.0783  -45.0904    9.9429 C   0  0  0  0  0  0  0  0  0  0  0  0
   42.1335  -45.2409    9.2884 O   0  0  0  0  0  0  0  0  0  0  0  0
   41.0784  -44.0936   11.0345 C   0  0  0  0  0  0  0  0  0  0  0  0
   40.3748  -42.8869   10.7597 N   0  0  0  0  0  0  0  0  0  0  0  0
   40.2202  -42.3139    9.4562 C   0  0  0  0  0  0  0  0  0  0  0  0
   40.7326  -42.9069    8.4650 O   0  0  0  0  0  0  0  0  0  0  0  0
   39.5010  -41.1089    9.3268 N   0  0  0  0  0  0  0  0  0  0  0  0
   39.2376  -40.2968    8.2139 C   0  0  0  0  0  0  0  0  0  0  0  0
   40.2592  -39.3388    7.7863 C   0  0  0  0  0  0  0  0  0  0  0  0
   40.2237  -38.6898    6.4842 C   0  0  0  0  0  0  0  0  0  0  0  0
   40.0438  -37.3265    6.1990 C   0  0  0  0  0  0  0  0  0  0  0  0
   40.0623  -37.1298    4.8666 N   0  0  0  0  0  0  0  0  0  0  0  0
   39.9388  -36.0481    4.0773 C   0  0  0  0  0  0  0  0  0  0  0  0
   39.9958  -36.1187    2.7081 C   0  0  0  0  0  0  0  0  0  0  0  0
   40.1880  -37.3581    2.1328 C   0  0  0  0  0  0  0  0  0  0  0  0
   40.3117  -38.4451    2.9328 C   0  0  0  0  0  0  0  0  0  0  0  0
   40.2475  -38.3273    4.3225 C   0  0  0  0  0  0  0  0  0  0  0  0
   40.3468  -39.2716    5.2588 N   0  0  0  0  0  0  0  0  0  0  0  0
  2  1  1  6  0  0  0
  2  3  1  0  0  0  0
  3  4  1  0  0  0  0
  4  5  1  0  0  0  0
  5  6  1  0  0  0  0
  6  7  1  0  0  0  0
  7  8  1  1  0  0  0
  7  2  1  0  0  0  0
  8  9  1  0  0  0  0
  9 10  2  0  0  0  0
  9 11  1  0  0  0  0
 11 12  1  0  0  0  0
 12 13  1  0  0  0  0
 13 14  2  0  0  0  0
 13 15  1  0  0  0  0
 15 16  1  0  0  0  0
 16 17  1  0  0  0  0
 17 18  1  0  0  0  0
 18 19  2  0  0  0  0
 19 20  1  0  0  0  0
 20 21  1  0  0  0  0
 21 22  2  0  0  0  0
 22 23  1  0  0  0  0
 23 24  2  0  0  0  0
 24 25  1  0  0  0  0
 25 26  2  0  0  0  0
 25 20  1  0  0  0  0
 26 18  1  0  0  0  0
M  END
>  <CHROM.1>
-54.80229133,-74.19512499,-29.66003298,-82.29107485,165.01588315,114.36466284
40.05992695,-42.33556204,7.17734092,1.70541782,1.40200409,2.58387646

>  <Name>
design_3

>  <RI>
0

>  <Rbt.Current_Directory>
/home/ziqiaoxu/icml18-jtnn/VAEdesign

>  <Rbt.Executable>
rbdock ($Id: //depot/dev/client3/rdock/2013.1/src/exe/rbdock.cxx#4 $)

>  <Rbt.Library>
libRbt.so (2013.1, Build901 2013/11/27)

>  <Rbt.Parameter_File>
/export/apps/rDock/src/rDock_2013.1_src//data/scripts/dock.prm

>  <Rbt.Receptor>
/home/ziqiaoxu/icml18-jtnn/VAEdesign/targets/RdRp-SARS-CoV-2/pocket_docking.prm

>  <SCORE>
-20.0754

>  <SCORE.INTER>
-21.4241

>  <SCORE.INTER.CONST>
1

>  <SCORE.INTER.POLAR>
-1.74852

>  <SCORE.INTER.REPUL>
0

>  <SCORE.INTER.ROT>
6

>  <SCORE.INTER.VDW>
-26.8792

>  <SCORE.INTER.norm>
-0.824004

>  <SCORE.INTRA>
1.34872

>  <SCORE.INTRA.DIHEDRAL>
-0.0143763

>  <SCORE.INTRA.DIHEDRAL.0>
5.80881

>  <SCORE.INTRA.POLAR>
0

>  <SCORE.INTRA.POLAR.0>
0

>  <SCORE.INTRA.REPUL>
0

>  <SCORE.INTRA.REPUL.0>
0

>  <SCORE.INTRA.VDW>
1.3559

>  <SCORE.INTRA.VDW.0>
-3.31864

>  <SCORE.INTRA.norm>
0.0518737

>  <SCORE.RESTR>
0

>  <SCORE.RESTR.CAVITY>
0

>  <SCORE.RESTR.norm>
0

>  <SCORE.SYSTEM>
0

>  <SCORE.SYSTEM.CONST>
0

>  <SCORE.SYSTEM.DIHEDRAL>
0

>  <SCORE.SYSTEM.norm>
0

>  <SCORE.heavy>
26

>  <SCORE.norm>
-0.772131

$$$$
design_10
 OpenBabel05252019093D

 23 25  0  0  0  0  0  0  0  0999 V2000
   39.5935  -36.3596    2.9208 C   0  0  0  0  0  0  0  0  0  0  0  0
   39.9560  -37.1301    4.1728 C   0  0  0  0  0  0  0  0  0  0  0  0
   40.6037  -38.3169    3.9939 C   0  0  0  0  0  0  0  0  0  0  0  0
   40.9490  -39.0557    5.1196 C   0  0  0  0  0  0  0  0  0  0  0  0
   40.6529  -38.6182    6.3880 C   0  0  0  0  0  0  0  0  0  0  0  0
   41.0508  -39.4622    7.5243 C   0  0  0  0  0  0  0  0  0  0  0  0
   39.8967  -39.5612    8.5424 C   0  0  0  0  0  0  0  0  0  0  0  0
   39.9524  -40.7771    9.2368 N   0  0  0  0  0  0  0  0  0  0  0  0
   40.0054  -41.9353    9.8981 C   0  0  0  0  0  0  0  0  0  0  0  0
   39.4526  -42.1988   11.0199 O   0  0  0  0  0  0  0  0  0  0  0  0
   40.7506  -43.0757    9.3585 N   0  0  0  0  0  0  0  0  0  0  0  0
   40.8251  -44.3118   10.0805 C   0  0  0  0  0  0  0  0  0  0  0  0
   40.3614  -45.4813    9.2992 C   0  0  0  0  0  0  0  0  0  0  0  0
   40.9392  -45.7965    8.1145 N   0  0  0  0  0  0  0  0  0  0  0  0
   40.2947  -46.9061    7.6537 C   0  0  0  0  0  0  0  0  0  0  0  0
   40.4704  -47.6518    6.5001 C   0  0  0  0  0  0  0  0  0  0  0  0
   39.7083  -48.7579    6.2065 C   0  0  0  0  0  0  0  0  0  0  0  0
   38.7305  -49.1334    7.1039 C   0  0  0  0  0  0  0  0  0  0  0  0
   38.5314  -48.3956    8.2803 C   0  0  0  0  0  0  0  0  0  0  0  0
   39.3183  -47.2898    8.5382 C   0  0  0  0  0  0  0  0  0  0  0  0
   39.3886  -46.3806    9.5493 N   0  0  0  0  0  0  0  0  0  0  0  0
   40.0006  -37.4197    6.5297 C   0  0  0  0  0  0  0  0  0  0  0  0
   39.6486  -36.6685    5.4076 C   0  0  0  0  0  0  0  0  0  0  0  0
  1  2  1  0  0  0  0
  2  3  2  0  0  0  0
  3  4  1  0  0  0  0
  4  5  2  0  0  0  0
  5  6  1  0  0  0  0
  5 22  1  0  0  0  0
  6  7  1  0  0  0  0
  7  8  1  0  0  0  0
  8  9  1  0  0  0  0
  9 10  2  0  0  0  0
  9 11  1  0  0  0  0
 11 12  1  0  0  0  0
 12 13  1  0  0  0  0
 13 14  2  0  0  0  0
 14 15  1  0  0  0  0
 15 16  2  0  0  0  0
 16 17  1  0  0  0  0
 17 18  2  0  0  0  0
 18 19  1  0  0  0  0
 19 20  2  0  0  0  0
 20 21  1  0  0  0  0
 20 15  1  0  0  0  0
 21 13  1  0  0  0  0
 22 23  2  0  0  0  0
 23  2  1  0  0  0  0
M  END
>  <CHROM.1>
-135.23669992,151.26411554,-57.37820860,124.43755596,57.64737196,40.04210395
-42.59606287,7.50959286,0.79270193,-1.50465242,-1.06117705

>  <Name>
design_10

>  <RI>
0

>  <Rbt.Current_Directory>
/home/ziqiaoxu/icml18-jtnn/VAEdesign

>  <Rbt.Executable>
rbdock ($Id: //depot/dev/client3/rdock/2013.1/src/exe/rbdock.cxx#4 $)

>  <Rbt.Library>
libRbt.so (2013.1, Build901 2013/11/27)

>  <Rbt.Parameter_File>
/export/apps/rDock/src/rDock_2013.1_src//data/scripts/dock.prm

>  <Rbt.Receptor>
/home/ziqiaoxu/icml18-jtnn/VAEdesign/targets/RdRp-SARS-CoV-2/pocket_docking.prm

>  <SCORE>
-21.1941

>  <SCORE.INTER>
-23.0665

>  <SCORE.INTER.CONST>
1

>  <SCORE.INTER.POLAR>
-1.94045

>  <SCORE.INTER.REPUL>
0

>  <SCORE.INTER.ROT>
5

>  <SCORE.INTER.VDW>
-26.869

>  <SCORE.INTER.norm>
-1.00289

>  <SCORE.INTRA>
1.86477

>  <SCORE.INTRA.DIHEDRAL>
2.523

>  <SCORE.INTRA.DIHEDRAL.0>
3.58873

>  <SCORE.INTRA.POLAR>
0

>  <SCORE.INTRA.POLAR.0>
0

>  <SCORE.INTRA.REPUL>
0

>  <SCORE.INTRA.REPUL.0>
0

>  <SCORE.INTRA.VDW>
0.603275

>  <SCORE.INTRA.VDW.0>
-1.08475

>  <SCORE.INTRA.norm>
0.0810772

>  <SCORE.RESTR>
0.00762003

>  <SCORE.RESTR.CAVITY>
0.00762003

>  <SCORE.RESTR.norm>
0.000331306

>  <SCORE.SYSTEM>
0

>  <SCORE.SYSTEM.CONST>
0

>  <SCORE.SYSTEM.DIHEDRAL>
0

>  <SCORE.SYSTEM.norm>
0

>  <SCORE.heavy>
23

>  <SCORE.norm>
-0.921483

$$$$
design_9
 OpenBabel05252019093D

 26 28  0  0  0  0  0  0  0  0999 V2000
   41.9369  -35.6200    3.1450 C   0  0  0  0  0  0  0  0  0  0  0  0
   40.5012  -35.9299    3.4204 C   0  0  0  0  0  0  0  0  0  0  0  0
   40.4284  -36.6358    4.7097 N   0  0  0  0  0  0  0  0  0  0  0  0
   40.2330  -38.0426    4.7065 C   0  0  0  0  0  0  0  0  0  0  0  0
   40.1225  -38.6805    3.6058 O   0  0  0  0  0  0  0  0  0  0  0  0
   40.1528  -38.7945    5.9372 C   0  0  0  0  0  0  0  0  0  0  0  0
   40.3407  -38.1631    7.1417 C   0  0  0  0  0  0  0  0  0  0  0  0
   40.2533  -38.9195    8.3141 C   0  0  0  0  0  0  0  0  0  0  0  0
   39.9852  -40.2679    8.2526 C   0  0  0  0  0  0  0  0  0  0  0  0
   39.9122  -41.0946    9.3741 N   0  0  0  0  0  0  0  0  0  0  0  0
   40.5393  -42.3508    9.4782 C   0  0  0  0  0  0  0  0  0  0  0  0
   41.2153  -42.8501    8.5502 O   0  0  0  0  0  0  0  0  0  0  0  0
   40.3897  -43.0915   10.7200 N   0  0  0  0  0  0  0  0  0  0  0  0
   41.0168  -44.3631   10.8608 C   0  0  0  0  0  0  0  0  0  0  0  0
   40.6672  -45.2743    9.7582 C   0  0  0  0  0  0  0  0  0  0  0  0
   39.4724  -45.9235    9.6405 C   0  0  0  0  0  0  0  0  0  0  0  0
   39.2251  -46.7408    8.5390 C   0  0  0  0  0  0  0  0  0  0  0  0
   40.1873  -46.8921    7.5687 C   0  0  0  0  0  0  0  0  0  0  0  0
   41.4097  -46.2225    7.6954 C   0  0  0  0  0  0  0  0  0  0  0  0
   42.3948  -46.3555    6.7351 C   0  0  0  0  0  0  0  0  0  0  0  0
   43.6060  -45.6925    6.8597 C   0  0  0  0  0  0  0  0  0  0  0  0
   43.8103  -44.8937    7.9656 C   0  0  0  0  0  0  0  0  0  0  0  0
   42.8532  -44.7576    8.9094 N   0  0  0  0  0  0  0  0  0  0  0  0
   41.6656  -45.4176    8.7716 C   0  0  0  0  0  0  0  0  0  0  0  0
   39.7954  -40.8970    7.0087 C   0  0  0  0  0  0  0  0  0  0  0  0
   39.8813  -40.1558    5.8731 C   0  0  0  0  0  0  0  0  0  0  0  0
  1  2  1  0  0  0  0
  2  3  1  0  0  0  0
  3  4  1  0  0  0  0
  4  5  2  0  0  0  0
  4  6  1  0  0  0  0
  6  7  2  0  0  0  0
  7  8  1  0  0  0  0
  8  9  2  0  0  0  0
  9 10  1  0  0  0  0
  9 25  1  0  0  0  0
 10 11  1  0  0  0  0
 11 12  2  0  0  0  0
 11 13  1  0  0  0  0
 13 14  1  0  0  0  0
 14 15  1  0  0  0  0
 15 16  2  0  0  0  0
 16 17  1  0  0  0  0
 17 18  2  0  0  0  0
 18 19  1  0  0  0  0
 19 20  2  0  0  0  0
 20 21  1  0  0  0  0
 21 22  2  0  0  0  0
 22 23  1  0  0  0  0
 23 24  2  0  0  0  0
 24 15  1  0  0  0  0
 24 19  1  0  0  0  0
 25 26  2  0  0  0  0
 26  6  1  0  0  0  0
M  END
>  <CHROM.1>
-103.09929048,-3.65596753,-133.28902132,-53.07513503,-76.28841707,40.84472979
-41.97429318,7.41206958,-1.73027079,-1.08402886,2.53984942

>  <Name>
design_9

>  <RI>
0

>  <Rbt.Current_Directory>
/home/ziqiaoxu/icml18-jtnn/VAEdesign

>  <Rbt.Executable>
rbdock ($Id: //depot/dev/client3/rdock/2013.1/src/exe/rbdock.cxx#4 $)

>  <Rbt.Library>
libRbt.so (2013.1, Build901 2013/11/27)

>  <Rbt.Parameter_File>
/export/apps/rDock/src/rDock_2013.1_src//data/scripts/dock.prm

>  <Rbt.Receptor>
/home/ziqiaoxu/icml18-jtnn/VAEdesign/targets/RdRp-SARS-CoV-2/pocket_docking.prm

>  <SCORE>
-19.0199

>  <SCORE.INTER>
-19.4908

>  <SCORE.INTER.CONST>
1

>  <SCORE.INTER.POLAR>
-0.891102

>  <SCORE.INTER.REPUL>
0

>  <SCORE.INTER.ROT>
5

>  <SCORE.INTER.VDW>
-26.861

>  <SCORE.INTER.norm>
-0.749645

>  <SCORE.INTRA>
0.463576

>  <SCORE.INTRA.DIHEDRAL>
4.26244

>  <SCORE.INTRA.DIHEDRAL.0>
5.52053

>  <SCORE.INTRA.POLAR>
0

>  <SCORE.INTRA.POLAR.0>
0

>  <SCORE.INTRA.REPUL>
0

>  <SCORE.INTRA.REPUL.0>
0

>  <SCORE.INTRA.VDW>
-1.66764

>  <SCORE.INTRA.VDW.0>
1.04529

>  <SCORE.INTRA.norm>
0.0178298

>  <SCORE.RESTR>
0.00731014

>  <SCORE.RESTR.CAVITY>
0.00731014

>  <SCORE.RESTR.norm>
0.000281159

>  <SCORE.SYSTEM>
0

>  <SCORE.SYSTEM.CONST>
0

>  <SCORE.SYSTEM.DIHEDRAL>
0

>  <SCORE.SYSTEM.norm>
0

>  <SCORE.heavy>
26

>  <SCORE.norm>
-0.731534

$$$$
design_9
 OpenBabel05252019093D

 22 24  0  0  0  0  0  0  0  0999 V2000
   36.0721  -42.3617    5.7567 C   0  0  0  0  0  0  0  0  0  0  0  0
   36.6009  -43.7379    5.7593 C   0  0  0  0  0  0  0  0  0  0  0  0
   35.7437  -44.7846    5.4893 C   0  0  0  0  0  0  0  0  0  0  0  0
   36.1894  -46.1033    5.4787 C   0  0  0  0  0  0  0  0  0  0  0  0
   37.5087  -46.3868    5.7407 C   0  0  0  0  0  0  0  0  0  0  0  0
   38.0124  -47.7088    5.7381 N   0  0  0  0  0  0  0  0  0  0  0  0
   39.5864  -48.0613    6.2411 S   0  0  0  0  0  0  0  0  0  0  0  0
   40.4671  -47.9699    4.9880 O   0  0  0  0  0  0  0  0  0  0  0  0
   39.6490  -49.5008    6.7206 O   0  0  0  0  0  0  0  0  0  0  0  0
   40.2592  -47.0108    7.4428 C   0  0  0  0  0  0  0  0  0  0  0  0
   41.5149  -46.4454    7.3623 C   0  0  0  0  0  0  0  0  0  0  0  0
   42.0448  -45.6071    8.3473 C   0  0  0  0  0  0  0  0  0  0  0  0
   43.1930  -44.9488    8.5134 N   0  0  0  0  0  0  0  0  0  0  0  0
   43.1769  -44.2694    9.6817 C   0  0  0  0  0  0  0  0  0  0  0  0
   44.1097  -43.5425   10.1432 O   0  0  0  0  0  0  0  0  0  0  0  0
   41.9788  -44.5296   10.2338 N   0  0  0  0  0  0  0  0  0  0  0  0
   41.2530  -45.3471    9.4465 C   0  0  0  0  0  0  0  0  0  0  0  0
   39.9984  -45.9159    9.5207 C   0  0  0  0  0  0  0  0  0  0  0  0
   39.4760  -46.7422    8.5494 C   0  0  0  0  0  0  0  0  0  0  0  0
   38.0955  -47.3075    8.7305 C   0  0  0  0  0  0  0  0  0  0  0  0
   38.3629  -45.3287    6.0110 C   0  0  0  0  0  0  0  0  0  0  0  0
   37.9205  -44.0279    6.0208 C   0  0  0  0  0  0  0  0  0  0  0  0
  1  2  1  0  0  0  0
  2  3  2  0  0  0  0
  3  4  1  0  0  0  0
  4  5  2  0  0  0  0
  5  6  1  0  0  0  0
  5 21  1  0  0  0  0
  6  7  1  0  0  0  0
  7  8  2  0  0  0  0
  7  9  2  0  0  0  0
  7 10  1  0  0  0  0
 10 11  2  0  0  0  0
 11 12  1  0  0  0  0
 12 13  1  0  0  0  0
 13 14  1  0  0  0  0
 14 15  2  0  0  0  0
 14 16  1  0  0  0  0
 16 17  1  0  0  0  0
 17 18  1  0  0  0  0
 17 12  2  0  0  0  0
 18 19  2  0  0  0  0
 19 20  1  0  0  0  0
 19 10  1  0  0  0  0
 21 22  2  0  0  0  0
 22  2  1  0  0  0  0
M  END
>  <CHROM.1>
-172.54098125,-90.23353955,-132.03158158,39.63582188,-45.96340800,7.29296678
2.85278654,0.53273015,-2.83816283

>  <Name>
design_9

>  <RI>
0

>  <Rbt.Current_Directory>
/home/ziqiaoxu/icml18-jtnn/VAEdesign

>  <Rbt.Executable>
rbdock ($Id: //depot/dev/client3/rdock/2013.1/src/exe/rbdock.cxx#4 $)

>  <Rbt.Library>
libRbt.so (2013.1, Build901 2013/11/27)

>  <Rbt.Parameter_File>
/export/apps/rDock/src/rDock_2013.1_src//data/scripts/dock.prm

>  <Rbt.Receptor>
/home/ziqiaoxu/icml18-jtnn/VAEdesign/targets/RdRp-SARS-CoV-2/pocket_docking.prm

>  <SCORE>
-21.8877

>  <SCORE.INTER>
-19.1731

>  <SCORE.INTER.CONST>
1

>  <SCORE.INTER.POLAR>
-0.211609

>  <SCORE.INTER.REPUL>
0

>  <SCORE.INTER.ROT>
3

>  <SCORE.INTER.VDW>
-26.8536

>  <SCORE.INTER.norm>
-0.871504

>  <SCORE.INTRA>
-2.71464

>  <SCORE.INTRA.DIHEDRAL>
-5.61918

>  <SCORE.INTRA.DIHEDRAL.0>
8.23097

>  <SCORE.INTRA.POLAR>
0

>  <SCORE.INTRA.POLAR.0>
0

>  <SCORE.INTRA.REPUL>
0

>  <SCORE.INTRA.REPUL.0>
0

>  <SCORE.INTRA.VDW>
0.0949505

>  <SCORE.INTRA.VDW.0>
-1.87581

>  <SCORE.INTRA.norm>
-0.123393

>  <SCORE.RESTR>
0

>  <SCORE.RESTR.CAVITY>
0

>  <SCORE.RESTR.norm>
0

>  <SCORE.SYSTEM>
0

>  <SCORE.SYSTEM.CONST>
0

>  <SCORE.SYSTEM.DIHEDRAL>
0

>  <SCORE.SYSTEM.norm>
0

>  <SCORE.heavy>
22

>  <SCORE.norm>
-0.994896

$$$$
design_1
 OpenBabel05252019093D

 25 27  0  0  0  0  0  0  0  0999 V2000
   41.3476  -44.3328   11.0049 C   0  0  0  0  0  0  0  0  0  0  0  0
   40.8906  -45.2809    9.9399 C   0  0  0  0  0  0  0  0  0  0  0  0
   39.7755  -46.0371    9.9910 N   0  0  0  0  0  0  0  0  0  0  0  0
   39.6772  -46.7728    8.8570 C   0  0  0  0  0  0  0  0  0  0  0  0
   38.7439  -47.6843    8.4256 C   0  0  0  0  0  0  0  0  0  0  0  0
   38.8902  -48.2982    7.2051 C   0  0  0  0  0  0  0  0  0  0  0  0
   39.9601  -48.0366    6.3663 C   0  0  0  0  0  0  0  0  0  0  0  0
   40.8920  -47.1217    6.8052 C   0  0  0  0  0  0  0  0  0  0  0  0
   40.7498  -46.5023    8.0302 C   0  0  0  0  0  0  0  0  0  0  0  0
   41.4974  -45.5619    8.7335 C   0  0  0  0  0  0  0  0  0  0  0  0
   42.7271  -44.9867    8.2365 C   0  0  0  0  0  0  0  0  0  0  0  0
   43.4566  -44.3636    9.0522 O   0  0  0  0  0  0  0  0  0  0  0  0
   43.1434  -45.1084    6.8208 C   0  0  0  0  0  0  0  0  0  0  0  0
   44.6162  -45.3274    6.6683 C   0  0  0  0  0  0  0  0  0  0  0  0
   45.0536  -44.9284    5.3074 C   0  0  0  0  0  0  0  0  0  0  0  0
   44.7498  -43.8492    4.7793 O   0  0  0  0  0  0  0  0  0  0  0  0
   45.8800  -45.8402    4.5451 N   0  0  0  0  0  0  0  0  0  0  0  0
   46.3085  -45.4593    3.2227 C   0  0  0  0  0  0  0  0  0  0  0  0
   45.3064  -45.6667    2.1964 C   0  0  0  0  0  0  0  0  0  0  0  0
   43.9827  -45.4126    2.3451 C   0  0  0  0  0  0  0  0  0  0  0  0
   43.0701  -45.6396    1.3019 C   0  0  0  0  0  0  0  0  0  0  0  0
   43.5189  -46.1278    0.1062 C   0  0  0  0  0  0  0  0  0  0  0  0
   44.8566  -46.3946   -0.0725 C   0  0  0  0  0  0  0  0  0  0  0  0
   45.7435  -46.1654    0.9659 C   0  0  0  0  0  0  0  0  0  0  0  0
   47.0551  -46.4417    0.7485 F   0  0  0  0  0  0  0  0  0  0  0  0
  1  2  1  0  0  0  0
  2  3  1  0  0  0  0
  3  4  1  0  0  0  0
  4  5  2  0  0  0  0
  5  6  1  0  0  0  0
  6  7  2  0  0  0  0
  7  8  1  0  0  0  0
  8  9  2  0  0  0  0
  9 10  1  0  0  0  0
  9  4  1  0  0  0  0
 10 11  1  0  0  0  0
 10  2  2  0  0  0  0
 11 12  2  0  0  0  0
 11 13  1  0  0  0  0
 13 14  1  0  0  0  0
 14 15  1  0  0  0  0
 15 16  2  0  0  0  0
 15 17  1  0  0  0  0
 17 18  1  0  0  0  0
 18 19  1  0  0  0  0
 19 20  2  0  0  0  0
 20 21  1  0  0  0  0
 21 22  2  0  0  0  0
 22 23  1  0  0  0  0
 23 24  2  0  0  0  0
 24 25  1  0  0  0  0
 24 19  1  0  0  0  0
M  END
>  <CHROM.1>
14.19827490,-141.18146010,-158.28426378,48.80855713,-80.68111046,40.21968265
42.98038874,-45.86432022,5.63145376,-2.23198970,-0.48970782,-1.89007961

>  <Name>
design_1

>  <RI>
0

>  <Rbt.Current_Directory>
/home/ziqiaoxu/icml18-jtnn/VAEdesign

>  <Rbt.Executable>
rbdock ($Id: //depot/dev/client3/rdock/2013.1/src/exe/rbdock.cxx#4 $)

>  <Rbt.Library>
libRbt.so (2013.1, Build901 2013/11/27)

>  <Rbt.Parameter_File>
/export/apps/rDock/src/rDock_2013.1_src//data/scripts/dock.prm

>  <Rbt.Receptor>
/home/ziqiaoxu/icml18-jtnn/VAEdesign/targets/RdRp-SARS-CoV-2/pocket_docking.prm

>  <SCORE>
-26.5391

>  <SCORE.INTER>
-21.9216

>  <SCORE.INTER.CONST>
1

>  <SCORE.INTER.POLAR>
-1.90486

>  <SCORE.INTER.REPUL>
0

>  <SCORE.INTER.ROT>
6

>  <SCORE.INTER.VDW>
-26.8451

>  <SCORE.INTER.norm>
-0.876866

>  <SCORE.INTRA>
-4.61744

>  <SCORE.INTRA.DIHEDRAL>
-8.43676

>  <SCORE.INTRA.DIHEDRAL.0>
16.848

>  <SCORE.INTRA.POLAR>
0

>  <SCORE.INTRA.POLAR.0>
0

>  <SCORE.INTRA.REPUL>
0

>  <SCORE.INTRA.REPUL.0>
0

>  <SCORE.INTRA.VDW>
-0.399064

>  <SCORE.INTRA.VDW.0>
0.193329

>  <SCORE.INTRA.norm>
-0.184698

>  <SCORE.RESTR>
0

>  <SCORE.RESTR.CAVITY>
0

>  <SCORE.RESTR.norm>
0

>  <SCORE.SYSTEM>
0

>  <SCORE.SYSTEM.CONST>
0

>  <SCORE.SYSTEM.DIHEDRAL>
0

>  <SCORE.SYSTEM.norm>
0

>  <SCORE.heavy>
25

>  <SCORE.norm>
-1.06156

$$$$
design_8
 OpenBabel05252019093D

 25 28  0  0  0  0  0  0  0  0999 V2000
   40.0046  -42.9505    7.9649 O   0  0  0  0  0  0  0  0  0  0  0  0
   39.8612  -42.2076    8.9556 C   0  0  0  0  0  0  0  0  0  0  0  0
   39.7797  -42.8320   10.3403 C   0  0  0  0  0  0  0  0  0  0  0  0
   40.7901  -43.9278   10.3966 C   0  0  0  0  0  0  0  0  0  0  0  0
   40.3990  -45.0927    9.5328 C   0  0  0  0  0  0  0  0  0  0  0  0
   40.8011  -45.3800    8.3087 N   0  0  0  0  0  0  0  0  0  0  0  0
   40.3546  -46.4417    7.7043 C   0  0  0  0  0  0  0  0  0  0  0  0
   40.6987  -46.8679    6.4007 C   0  0  0  0  0  0  0  0  0  0  0  0
   40.1473  -48.0022    5.9053 C   0  0  0  0  0  0  0  0  0  0  0  0
   39.2544  -48.8153    6.5589 C   0  0  0  0  0  0  0  0  0  0  0  0
   38.9104  -48.4011    7.8455 C   0  0  0  0  0  0  0  0  0  0  0  0
   39.4652  -47.2315    8.3844 C   0  0  0  0  0  0  0  0  0  0  0  0
   39.3282  -46.3826    9.8692 S   0  0  0  0  0  0  0  0  0  0  0  0
   39.7702  -40.8188    8.8645 N   0  0  0  0  0  0  0  0  0  0  0  0
   39.8360  -40.0806    7.6674 C   0  0  0  0  0  0  0  0  0  0  0  0
   39.8082  -40.6363    6.4293 C   0  0  0  0  0  0  0  0  0  0  0  0
   39.8524  -39.8467    5.2669 C   0  0  0  0  0  0  0  0  0  0  0  0
   39.9270  -38.4758    5.3265 C   0  0  0  0  0  0  0  0  0  0  0  0
   39.9729  -37.6558    4.1656 N   0  0  0  0  0  0  0  0  0  0  0  0
   39.8545  -38.0630    2.8915 C   0  0  0  0  0  0  0  0  0  0  0  0
   39.9507  -36.9879    2.0672 N   0  0  0  0  0  0  0  0  0  0  0  0
   40.1297  -35.9136    2.8528 C   0  0  0  0  0  0  0  0  0  0  0  0
   40.1384  -36.3588    4.1335 N   0  0  0  0  0  0  0  0  0  0  0  0
   39.9552  -37.9278    6.5915 C   0  0  0  0  0  0  0  0  0  0  0  0
   39.9129  -38.6725    7.7318 C   0  0  0  0  0  0  0  0  0  0  0  0
  1  2  2  0  0  0  0
  2  3  1  0  0  0  0
  2 14  1  0  0  0  0
  3  4  1  0  0  0  0
  4  5  1  0  0  0  0
  5  6  2  0  0  0  0
  6  7  1  0  0  0  0
  7  8  2  0  0  0  0
  8  9  1  0  0  0  0
  9 10  2  0  0  0  0
 10 11  1  0  0  0  0
 11 12  2  0  0  0  0
 12 13  1  0  0  0  0
 12  7  1  0  0  0  0
 13  5  1  0  0  0  0
 14 15  1  0  0  0  0
 15 16  2  0  0  0  0
 16 17  1  0  0  0  0
 17 18  2  0  0  0  0
 18 19  1  0  0  0  0
 18 24  1  0  0  0  0
 19 20  1  0  0  0  0
 20 21  2  0  0  0  0
 21 22  1  0  0  0  0
 22 23  2  0  0  0  0
 23 19  1  0  0  0  0
 24 25  2  0  0  0  0
 25 15  1  0  0  0  0
M  END
>  <CHROM.1>
40.85809568,-70.02801734,97.89821351,9.70311417,5.18662104,39.92539650,-42.41438316
7.04885216,-2.44973261,-1.54814108,-1.29294968

>  <Name>
design_8

>  <RI>
0

>  <Rbt.Current_Directory>
/home/ziqiaoxu/icml18-jtnn/VAEdesign

>  <Rbt.Executable>
rbdock ($Id: //depot/dev/client3/rdock/2013.1/src/exe/rbdock.cxx#4 $)

>  <Rbt.Library>
libRbt.so (2013.1, Build901 2013/11/27)

>  <Rbt.Parameter_File>
/export/apps/rDock/src/rDock_2013.1_src//data/scripts/dock.prm

>  <Rbt.Receptor>
/home/ziqiaoxu/icml18-jtnn/VAEdesign/targets/RdRp-SARS-CoV-2/pocket_docking.prm

>  <SCORE>
-20.8636

>  <SCORE.INTER>
-19.5208

>  <SCORE.INTER.CONST>
1

>  <SCORE.INTER.POLAR>
-0.951394

>  <SCORE.INTER.REPUL>
0.0295768

>  <SCORE.INTER.ROT>
5

>  <SCORE.INTER.VDW>
-26.8339

>  <SCORE.INTER.norm>
-0.780832

>  <SCORE.INTRA>
-1.34276

>  <SCORE.INTRA.DIHEDRAL>
-1.37305

>  <SCORE.INTRA.DIHEDRAL.0>
5.86269

>  <SCORE.INTRA.POLAR>
0

>  <SCORE.INTRA.POLAR.0>
0

>  <SCORE.INTRA.REPUL>
0

>  <SCORE.INTRA.REPUL.0>
0

>  <SCORE.INTRA.VDW>
-0.656238

>  <SCORE.INTRA.VDW.0>
0.980895

>  <SCORE.INTRA.norm>
-0.0537105

>  <SCORE.RESTR>
0

>  <SCORE.RESTR.CAVITY>
0

>  <SCORE.RESTR.norm>
0

>  <SCORE.SYSTEM>
0

>  <SCORE.SYSTEM.CONST>
0

>  <SCORE.SYSTEM.DIHEDRAL>
0

>  <SCORE.SYSTEM.norm>
0

>  <SCORE.heavy>
25

>  <SCORE.norm>
-0.834543

$$$$
design_18
 OpenBabel05252019093D

 25 26  0  0  0  0  0  0  0  0999 V2000
   48.0230  -43.4084    6.8198 C   0  0  0  0  0  0  0  0  0  0  0  0
   46.6526  -43.9114    7.2012 C   0  0  0  0  0  0  0  0  0  0  0  0
   46.0847  -43.3628    8.3128 C   0  0  0  0  0  0  0  0  0  0  0  0
   44.8031  -43.7922    8.7097 C   0  0  0  0  0  0  0  0  0  0  0  0
   44.1232  -44.7429    8.0090 C   0  0  0  0  0  0  0  0  0  0  0  0
   42.7349  -45.0777    8.4410 C   0  0  0  0  0  0  0  0  0  0  0  0
   42.2316  -44.4646    9.3755 O   0  0  0  0  0  0  0  0  0  0  0  0
   42.0683  -46.0985    7.7468 N   0  0  0  0  0  0  0  0  0  0  0  0
   40.8093  -46.6516    7.9015 C   0  0  0  0  0  0  0  0  0  0  0  0
   40.0156  -46.2003    8.9753 C   0  0  0  0  0  0  0  0  0  0  0  0
   38.7461  -46.7226    9.1581 C   0  0  0  0  0  0  0  0  0  0  0  0
   38.2278  -47.6639    8.3275 C   0  0  0  0  0  0  0  0  0  0  0  0
   38.9744  -48.1286    7.2670 C   0  0  0  0  0  0  0  0  0  0  0  0
   40.2585  -47.5984    7.0872 C   0  0  0  0  0  0  0  0  0  0  0  0
   44.7103  -45.2892    6.8930 C   0  0  0  0  0  0  0  0  0  0  0  0
   45.9873  -44.8734    6.4753 C   0  0  0  0  0  0  0  0  0  0  0  0
   46.5576  -45.3190    5.2855 N   0  0  0  0  0  0  0  0  0  0  0  0
   46.0165  -45.6338    4.0309 C   0  0  0  0  0  0  0  0  0  0  0  0
   44.7368  -45.5794    3.8890 O   0  0  0  0  0  0  0  0  0  0  0  0
   46.8556  -46.0248    2.8947 C   0  0  0  0  0  0  0  0  0  0  0  0
   46.2258  -46.8664    1.8517 C   0  0  0  0  0  0  0  0  0  0  0  0
   45.1839  -46.4437    1.0615 N   0  0  0  0  0  0  0  0  0  0  0  0
   44.1349  -46.0195    0.2653 C   0  0  0  0  0  0  0  0  0  0  0  0
   43.6771  -44.6715    0.3162 N   0  0  0  0  0  0  0  0  0  0  0  0
   43.5187  -46.7673   -0.5404 O   0  0  0  0  0  0  0  0  0  0  0  0
  1  2  1  0  0  0  0
  2  3  2  0  0  0  0
  3  4  1  0  0  0  0
  4  5  2  0  0  0  0
  5  6  1  0  0  0  0
  5 15  1  0  0  0  0
  6  7  2  0  0  0  0
  6  8  1  0  0  0  0
  8  9  1  0  0  0  0
  9 10  2  0  0  0  0
 10 11  1  0  0  0  0
 11 12  2  0  0  0  0
 12 13  1  0  0  0  0
 13 14  2  0  0  0  0
 14  9  1  0  0  0  0
 15 16  2  0  0  0  0
 16 17  1  0  0  0  0
 16  2  1  0  0  0  0
 17 18  1  0  0  0  0
 18 19  2  0  0  0  0
 18 20  1  0  0  0  0
 20 21  1  0  0  0  0
 21 22  1  0  0  0  0
 22 23  1  0  0  0  0
 23 24  1  0  0  0  0
 23 25  2  0  0  0  0
M  END
>  <CHROM.1>
2.40609478,-3.59380183,-139.62687748,154.41238053,64.35995267,-175.69776693
43.69920161,-45.64947613,5.69698743,-0.88053549,0.39938871,1.34019577

>  <Name>
design_18

>  <RI>
0

>  <Rbt.Current_Directory>
/home/ziqiaoxu/icml18-jtnn/VAEdesign

>  <Rbt.Executable>
rbdock ($Id: //depot/dev/client3/rdock/2013.1/src/exe/rbdock.cxx#4 $)

>  <Rbt.Library>
libRbt.so (2013.1, Build901 2013/11/27)

>  <Rbt.Parameter_File>
/export/apps/rDock/src/rDock_2013.1_src//data/scripts/dock.prm

>  <Rbt.Receptor>
/home/ziqiaoxu/icml18-jtnn/VAEdesign/targets/RdRp-SARS-CoV-2/pocket_docking.prm

>  <SCORE>
-23.4285

>  <SCORE.INTER>
-22.6928

>  <SCORE.INTER.CONST>
1

>  <SCORE.INTER.POLAR>
-2.13657

>  <SCORE.INTER.REPUL>
0

>  <SCORE.INTER.ROT>
6

>  <SCORE.INTER.VDW>
-26.8285

>  <SCORE.INTER.norm>
-0.907712

>  <SCORE.INTRA>
-0.735712

>  <SCORE.INTRA.DIHEDRAL>
-3.19132

>  <SCORE.INTRA.DIHEDRAL.0>
9.96349

>  <SCORE.INTRA.POLAR>
0

>  <SCORE.INTRA.POLAR.0>
0

>  <SCORE.INTRA.REPUL>
0

>  <SCORE.INTRA.REPUL.0>
0

>  <SCORE.INTRA.VDW>
0.85995

>  <SCORE.INTRA.VDW.0>
-1.09571

>  <SCORE.INTRA.norm>
-0.0294285

>  <SCORE.RESTR>
0

>  <SCORE.RESTR.CAVITY>
0

>  <SCORE.RESTR.norm>
0

>  <SCORE.SYSTEM>
0

>  <SCORE.SYSTEM.CONST>
0

>  <SCORE.SYSTEM.DIHEDRAL>
0

>  <SCORE.SYSTEM.norm>
0

>  <SCORE.heavy>
25

>  <SCORE.norm>
-0.93714

$$$$
design_2
 OpenBabel05252019093D

 23 25  0  0  0  0  0  0  0  0999 V2000
   37.6876  -43.3548    6.2498 O   0  0  0  0  0  0  0  0  0  0  0  0
   36.5396  -43.7021    5.8778 C   0  0  0  0  0  0  0  0  0  0  0  0
   36.2751  -45.0815    5.4718 C   0  0  0  0  0  0  0  0  0  0  0  0
   37.2024  -46.0068    6.2480 C   0  0  0  0  0  0  0  0  0  0  0  0
   37.6562  -47.1924    5.7128 C   0  0  0  0  0  0  0  0  0  0  0  0
   38.6306  -47.7924    6.9792 S   0  0  0  0  0  0  0  0  0  0  0  0
   38.4082  -46.5254    8.0953 C   0  0  0  0  0  0  0  0  0  0  0  0
   38.9914  -46.3681    9.4846 C   0  0  0  0  0  0  0  0  0  0  0  0
   39.8175  -45.2219    9.4099 O   0  0  0  0  0  0  0  0  0  0  0  0
   41.0712  -45.2553    8.7885 C   0  0  0  0  0  0  0  0  0  0  0  0
   41.3656  -46.1224    7.7632 C   0  0  0  0  0  0  0  0  0  0  0  0
   42.6276  -46.1162    7.1793 C   0  0  0  0  0  0  0  0  0  0  0  0
   43.6105  -45.2508    7.6053 C   0  0  0  0  0  0  0  0  0  0  0  0
   43.3205  -44.3786    8.6335 C   0  0  0  0  0  0  0  0  0  0  0  0
   44.2658  -43.5212    9.0709 F   0  0  0  0  0  0  0  0  0  0  0  0
   42.0551  -44.3918    9.2120 C   0  0  0  0  0  0  0  0  0  0  0  0
   37.6031  -45.7085    7.4465 N   0  0  0  0  0  0  0  0  0  0  0  0
   35.5071  -42.7403    5.8573 N   0  0  0  0  0  0  0  0  0  0  0  0
   35.7859  -41.3835    6.2598 C   0  0  0  0  0  0  0  0  0  0  0  0
   35.2438  -40.4065    5.2306 C   0  0  0  0  0  0  0  0  0  0  0  0
   34.8528  -39.1763    6.0147 C   0  0  0  0  0  0  0  0  0  0  0  0
   34.6229  -39.6139    7.4340 C   0  0  0  0  0  0  0  0  0  0  0  0
   35.0241  -41.0707    7.5332 C   0  0  0  0  0  0  0  0  0  0  0  0
  1  2  2  0  0  0  0
  2  3  1  0  0  0  0
  2 18  1  0  0  0  0
  3  4  1  0  0  0  0
  4  5  2  0  0  0  0
  5  6  1  0  0  0  0
  6  7  1  0  0  0  0
  7  8  1  0  0  0  0
  7 17  2  0  0  0  0
  8  9  1  0  0  0  0
  9 10  1  0  0  0  0
 10 11  2  0  0  0  0
 11 12  1  0  0  0  0
 12 13  2  0  0  0  0
 13 14  1  0  0  0  0
 14 15  1  0  0  0  0
 14 16  2  0  0  0  0
 16 10  1  0  0  0  0
 17  4  1  0  0  0  0
 18 19  1  0  0  0  0
 19 20  1  0  0  0  0
 20 21  1  0  0  0  0
 21 22  1  0  0  0  0
 22 23  1  0  0  0  0
 23 19  1  0  0  0  0
M  END
>  <CHROM.1>
30.38708797,-149.08989685,115.90640467,-75.74427589,28.40000998,131.27348668
38.63493061,-44.32673880,7.28903914,-2.62040574,0.34890560,-3.05184036

>  <Name>
design_2

>  <RI>
0

>  <Rbt.Current_Directory>
/home/ziqiaoxu/icml18-jtnn/VAEdesign

>  <Rbt.Executable>
rbdock ($Id: //depot/dev/client3/rdock/2013.1/src/exe/rbdock.cxx#4 $)

>  <Rbt.Library>
libRbt.so (2013.1, Build901 2013/11/27)

>  <Rbt.Parameter_File>
/export/apps/rDock/src/rDock_2013.1_src//data/scripts/dock.prm

>  <Rbt.Receptor>
/home/ziqiaoxu/icml18-jtnn/VAEdesign/targets/RdRp-SARS-CoV-2/pocket_docking.prm

>  <SCORE>
-15.7

>  <SCORE.INTER>
-16.2704

>  <SCORE.INTER.CONST>
1

>  <SCORE.INTER.POLAR>
-0.257595

>  <SCORE.INTER.REPUL>
0.00531149

>  <SCORE.INTER.ROT>
6

>  <SCORE.INTER.VDW>
-26.8212

>  <SCORE.INTER.norm>
-0.70741

>  <SCORE.INTRA>
0.346803

>  <SCORE.INTRA.DIHEDRAL>
2.02829

>  <SCORE.INTRA.DIHEDRAL.0>
5.38505

>  <SCORE.INTRA.POLAR>
0

>  <SCORE.INTRA.POLAR.0>
0

>  <SCORE.INTRA.REPUL>
0

>  <SCORE.INTRA.REPUL.0>
0

>  <SCORE.INTRA.VDW>
-0.667342

>  <SCORE.INTRA.VDW.0>
-0.514696

>  <SCORE.INTRA.norm>
0.0150784

>  <SCORE.RESTR>
0.223675

>  <SCORE.RESTR.CAVITY>
0.223675

>  <SCORE.RESTR.norm>
0.00972498

>  <SCORE.SYSTEM>
0

>  <SCORE.SYSTEM.CONST>
0

>  <SCORE.SYSTEM.DIHEDRAL>
0

>  <SCORE.SYSTEM.norm>
0

>  <SCORE.heavy>
23

>  <SCORE.norm>
-0.682607

$$$$
design_5
 OpenBabel05252019093D

 23 25  0  0  0  0  0  0  0  0999 V2000
   41.8311  -44.3035   10.3151 C   0  0  0  0  0  0  0  0  0  0  0  0
   41.1196  -45.3507    9.5340 C   0  0  0  0  0  0  0  0  0  0  0  0
   39.9597  -45.9439    9.9866 C   0  0  0  0  0  0  0  0  0  0  0  0
   39.3038  -46.9123    9.2616 C   0  0  0  0  0  0  0  0  0  0  0  0
   39.7777  -47.3384    8.0407 C   0  0  0  0  0  0  0  0  0  0  0  0
   38.9423  -48.5242    7.0865 S   0  0  0  0  0  0  0  0  0  0  0  0
   38.3800  -49.5639    8.0540 O   0  0  0  0  0  0  0  0  0  0  0  0
   40.0339  -49.2305    6.2725 O   0  0  0  0  0  0  0  0  0  0  0  0
   37.7329  -47.9473    6.0624 N   0  0  0  0  0  0  0  0  0  0  0  0
   37.3865  -46.5861    5.9624 C   0  0  0  0  0  0  0  0  0  0  0  0
   36.1934  -46.1902    5.4214 C   0  0  0  0  0  0  0  0  0  0  0  0
   35.8249  -44.8637    5.3438 C   0  0  0  0  0  0  0  0  0  0  0  0
   36.6558  -43.8705    5.8162 C   0  0  0  0  0  0  0  0  0  0  0  0
   37.8559  -44.2862    6.3602 C   0  0  0  0  0  0  0  0  0  0  0  0
   38.2422  -45.6024    6.4465 C   0  0  0  0  0  0  0  0  0  0  0  0
   38.8014  -43.3996    6.8795 O   0  0  0  0  0  0  0  0  0  0  0  0
   38.6317  -42.1497    7.4415 C   0  0  0  0  0  0  0  0  0  0  0  0
   37.8197  -41.1703    6.6775 C   0  0  0  0  0  0  0  0  0  0  0  0
   36.3721  -41.5049    6.5250 C   0  0  0  0  0  0  0  0  0  0  0  0
   36.1213  -42.5892    5.6556 O   0  0  0  0  0  0  0  0  0  0  0  0
   40.9554  -46.7330    7.5856 C   0  0  0  0  0  0  0  0  0  0  0  0
   41.6109  -45.7628    8.3140 C   0  0  0  0  0  0  0  0  0  0  0  0
   42.8703  -45.1417    7.7867 C   0  0  0  0  0  0  0  0  0  0  0  0
  1  2  1  0  0  0  0
  2  3  2  0  0  0  0
  3  4  1  0  0  0  0
  4  5  2  0  0  0  0
  5  6  1  0  0  0  0
  5 21  1  0  0  0  0
  6  7  2  0  0  0  0
  6  8  2  0  0  0  0
  6  9  1  0  0  0  0
  9 10  1  0  0  0  0
 10 11  2  0  0  0  0
 11 12  1  0  0  0  0
 12 13  2  0  0  0  0
 13 14  1  0  0  0  0
 14 15  2  0  0  0  0
 14 16  1  0  0  0  0
 15 10  1  0  0  0  0
 16 17  1  0  0  0  0
 17 18  1  0  0  0  0
 18 19  1  0  0  0  0
 19 20  1  0  0  0  0
 20 13  1  0  0  0  0
 21 22  2  0  0  0  0
 22 23  1  0  0  0  0
 22  2  1  0  0  0  0
M  END
>  <CHROM.1>
-38.35777459,-0.25152811,-161.89447468,38.81160249,-45.60908583,7.23251861
-0.91905600,-0.60069198,0.08147105

>  <Name>
design_5

>  <RI>
0

>  <Rbt.Current_Directory>
/home/ziqiaoxu/icml18-jtnn/VAEdesign

>  <Rbt.Executable>
rbdock ($Id: //depot/dev/client3/rdock/2013.1/src/exe/rbdock.cxx#4 $)

>  <Rbt.Library>
libRbt.so (2013.1, Build901 2013/11/27)

>  <Rbt.Parameter_File>
/export/apps/rDock/src/rDock_2013.1_src//data/scripts/dock.prm

>  <Rbt.Receptor>
/home/ziqiaoxu/icml18-jtnn/VAEdesign/targets/RdRp-SARS-CoV-2/pocket_docking.prm

>  <SCORE>
-22.1033

>  <SCORE.INTER>
-18.42

>  <SCORE.INTER.CONST>
1

>  <SCORE.INTER.POLAR>
0

>  <SCORE.INTER.REPUL>
0

>  <SCORE.INTER.ROT>
3

>  <SCORE.INTER.VDW>
-26.82

>  <SCORE.INTER.norm>
-0.800871

>  <SCORE.INTRA>
-3.68322

>  <SCORE.INTRA.DIHEDRAL>
-7.64074

>  <SCORE.INTRA.DIHEDRAL.0>
11.113

>  <SCORE.INTRA.POLAR>
0

>  <SCORE.INTRA.POLAR.0>
0

>  <SCORE.INTRA.REPUL>
0

>  <SCORE.INTRA.REPUL.0>
0

>  <SCORE.INTRA.VDW>
0.137155

>  <SCORE.INTRA.VDW.0>
-2.16401

>  <SCORE.INTRA.norm>
-0.16014

>  <SCORE.RESTR>
0

>  <SCORE.RESTR.CAVITY>
0

>  <SCORE.RESTR.norm>
0

>  <SCORE.SYSTEM>
0

>  <SCORE.SYSTEM.CONST>
0

>  <SCORE.SYSTEM.DIHEDRAL>
0

>  <SCORE.SYSTEM.norm>
0

>  <SCORE.heavy>
23

>  <SCORE.norm>
-0.961011

$$$$
design_4
 OpenBabel05252019093D

 24 27  0  0  0  0  0  0  0  0999 V2000
   42.0160  -43.4217    1.8360 C   0  0  0  0  0  0  0  0  0  0  0  0
   41.0961  -43.9011    2.9102 C   0  0  0  0  0  0  0  0  0  0  0  0
   41.1874  -43.4336    4.2034 C   0  0  0  0  0  0  0  0  0  0  0  0
   40.3287  -43.8886    5.1809 C   0  0  0  0  0  0  0  0  0  0  0  0
   39.3359  -44.8295    4.9290 C   0  0  0  0  0  0  0  0  0  0  0  0
   38.4454  -45.2715    6.0359 C   0  0  1  0  0  0  0  0  0  0  0  0
   37.2684  -44.3256    6.1542 C   0  0  0  0  0  0  0  0  0  0  0  0
   36.1614  -45.0219    5.4149 C   0  0  0  0  0  0  0  0  0  0  0  0
   36.5482  -46.4575    5.2953 C   0  0  0  0  0  0  0  0  0  0  0  0
   37.9026  -46.5996    5.8422 N   0  0  0  0  0  0  0  0  0  0  0  0
   38.4913  -47.8580    6.1072 C   0  0  0  0  0  0  0  0  0  0  0  0
   37.8177  -48.8947    5.8389 O   0  0  0  0  0  0  0  0  0  0  0  0
   39.8464  -48.0255    6.6783 C   0  0  0  0  0  0  0  0  0  0  0  0
   40.1270  -47.1528    7.7907 N   0  0  0  0  0  0  0  0  0  0  0  0
   39.4231  -46.9597    8.9126 C   0  0  0  0  0  0  0  0  0  0  0  0
   40.0294  -46.0352    9.7323 C   0  0  0  0  0  0  0  0  0  0  0  0
   41.1689  -45.6337    9.0853 C   0  0  0  0  0  0  0  0  0  0  0  0
   42.1426  -44.7269    9.4531 C   0  0  0  0  0  0  0  0  0  0  0  0
   43.2130  -44.5106    8.5799 C   0  0  0  0  0  0  0  0  0  0  0  0
   43.2575  -45.1969    7.4058 C   0  0  0  0  0  0  0  0  0  0  0  0
   42.2733  -46.0945    7.0649 C   0  0  0  0  0  0  0  0  0  0  0  0
   41.2076  -46.3341    7.8940 C   0  0  0  0  0  0  0  0  0  0  0  0
   39.2468  -45.2955    3.6355 C   0  0  0  0  0  0  0  0  0  0  0  0
   40.1178  -44.8342    2.6423 C   0  0  0  0  0  0  0  0  0  0  0  0
  1  2  1  0  0  0  0
  2  3  2  0  0  0  0
  3  4  1  0  0  0  0
  4  5  2  0  0  0  0
  5 23  1  0  0  0  0
  6  5  1  6  0  0  0
  6  7  1  0  0  0  0
  7  8  1  0  0  0  0
  8  9  1  0  0  0  0
  9 10  1  0  0  0  0
 10 11  1  0  0  0  0
 10  6  1  0  0  0  0
 11 12  2  0  0  0  0
 11 13  1  0  0  0  0
 13 14  1  0  0  0  0
 14 15  1  0  0  0  0
 15 16  2  0  0  0  0
 16 17  1  0  0  0  0
 17 18  2  0  0  0  0
 18 19  1  0  0  0  0
 19 20  2  0  0  0  0
 20 21  1  0  0  0  0
 21 22  2  0  0  0  0
 22 14  1  0  0  0  0
 22 17  1  0  0  0  0
 23 24  2  0  0  0  0
 24  2  1  0  0  0  0
M  END
>  <CHROM.1>
86.60145749,44.86309048,52.39675911,39.89480127,-45.64011731,6.16182573,-1.95563680
0.43535647,2.00201547

>  <Name>
design_4

>  <RI>
0

>  <Rbt.Current_Directory>
/home/ziqiaoxu/icml18-jtnn/VAEdesign

>  <Rbt.Executable>
rbdock ($Id: //depot/dev/client3/rdock/2013.1/src/exe/rbdock.cxx#4 $)

>  <Rbt.Library>
libRbt.so (2013.1, Build901 2013/11/27)

>  <Rbt.Parameter_File>
/export/apps/rDock/src/rDock_2013.1_src//data/scripts/dock.prm

>  <Rbt.Receptor>
/home/ziqiaoxu/icml18-jtnn/VAEdesign/targets/RdRp-SARS-CoV-2/pocket_docking.prm

>  <SCORE>
-19.9638

>  <SCORE.INTER>
-18.4184

>  <SCORE.INTER.CONST>
1

>  <SCORE.INTER.POLAR>
0

>  <SCORE.INTER.REPUL>
0

>  <SCORE.INTER.ROT>
3

>  <SCORE.INTER.VDW>
-26.8184

>  <SCORE.INTER.norm>
-0.767434

>  <SCORE.INTRA>
-1.54543

>  <SCORE.INTRA.DIHEDRAL>
0.00510267

>  <SCORE.INTRA.DIHEDRAL.0>
4.44835

>  <SCORE.INTRA.POLAR>
0

>  <SCORE.INTRA.POLAR.0>
0

>  <SCORE.INTRA.REPUL>
0

>  <SCORE.INTRA.REPUL.0>
0

>  <SCORE.INTRA.VDW>
-1.54798

>  <SCORE.INTRA.VDW.0>
-2.28331

>  <SCORE.INTRA.norm>
-0.0643929

>  <SCORE.RESTR>
0

>  <SCORE.RESTR.CAVITY>
0

>  <SCORE.RESTR.norm>
0

>  <SCORE.SYSTEM>
0

>  <SCORE.SYSTEM.CONST>
0

>  <SCORE.SYSTEM.DIHEDRAL>
0

>  <SCORE.SYSTEM.norm>
0

>  <SCORE.heavy>
24

>  <SCORE.norm>
-0.831827

$$$$
design_5
 OpenBabel05252019093D

 23 25  0  0  0  0  0  0  0  0999 V2000
   41.7671  -44.3757   10.5912 C   0  0  0  0  0  0  0  0  0  0  0  0
   41.1354  -45.2581    9.5656 C   0  0  0  0  0  0  0  0  0  0  0  0
   41.8013  -45.6732    8.4381 C   0  0  0  0  0  0  0  0  0  0  0  0
   41.1710  -46.4902    7.5186 C   0  0  0  0  0  0  0  0  0  0  0  0
   39.8745  -46.9248    7.6738 C   0  0  0  0  0  0  0  0  0  0  0  0
   39.1700  -47.9456    6.4704 S   0  0  0  0  0  0  0  0  0  0  0  0
   40.1980  -48.1442    5.3546 O   0  0  0  0  0  0  0  0  0  0  0  0
   38.9693  -49.3349    7.0334 O   0  0  0  0  0  0  0  0  0  0  0  0
   37.7294  -47.3547    5.8055 N   0  0  0  0  0  0  0  0  0  0  0  0
   37.3920  -45.9743    5.8088 C   0  0  0  0  0  0  0  0  0  0  0  0
   36.1476  -45.5388    5.4145 C   0  0  0  0  0  0  0  0  0  0  0  0
   35.8046  -44.2011    5.4087 C   0  0  0  0  0  0  0  0  0  0  0  0
   36.7254  -43.2539    5.8077 C   0  0  0  0  0  0  0  0  0  0  0  0
   36.3695  -41.8805    5.8004 N   0  0  0  0  0  0  0  0  0  0  0  0
   35.2628  -41.3825    5.1994 C   0  0  0  0  0  0  0  0  0  0  0  0
   35.2330  -40.0575    5.3842 N   0  0  0  0  0  0  0  0  0  0  0  0
   36.2919  -39.7222    6.0839 N   0  0  0  0  0  0  0  0  0  0  0  0
   36.9766  -40.8369    6.3320 N   0  0  0  0  0  0  0  0  0  0  0  0
   37.9818  -43.6903    6.2061 C   0  0  0  0  0  0  0  0  0  0  0  0
   38.3281  -45.0172    6.2140 C   0  0  0  0  0  0  0  0  0  0  0  0
   39.2054  -46.5105    8.8021 C   0  0  0  0  0  0  0  0  0  0  0  0
   37.8219  -46.9376    9.0276 C   0  0  0  0  0  0  0  0  0  0  0  0
   39.8360  -45.6828    9.7387 C   0  0  0  0  0  0  0  0  0  0  0  0
  1  2  1  0  0  0  0
  2  3  2  0  0  0  0
  3  4  1  0  0  0  0
  4  5  2  0  0  0  0
  5  6  1  0  0  0  0
  5 21  1  0  0  0  0
  6  7  2  0  0  0  0
  6  8  2  0  0  0  0
  6  9  1  0  0  0  0
  9 10  1  0  0  0  0
 10 11  2  0  0  0  0
 11 12  1  0  0  0  0
 12 13  2  0  0  0  0
 13 14  1  0  0  0  0
 13 19  1  0  0  0  0
 14 15  1  0  0  0  0
 15 16  2  0  0  0  0
 16 17  1  0  0  0  0
 17 18  2  0  0  0  0
 18 14  1  0  0  0  0
 19 20  2  0  0  0  0
 20 10  1  0  0  0  0
 21 22  1  0  0  0  0
 21 23  2  0  0  0  0
 23  2  1  0  0  0  0
M  END
>  <CHROM.1>
-1.96156563,23.52009165,-171.79739603,-12.62946626,38.36419008,-45.08965142
6.90708499,-0.75002017,-0.74703929,0.29051949

>  <Name>
design_5

>  <RI>
0

>  <Rbt.Current_Directory>
/home/ziqiaoxu/icml18-jtnn/VAEdesign

>  <Rbt.Executable>
rbdock ($Id: //depot/dev/client3/rdock/2013.1/src/exe/rbdock.cxx#4 $)

>  <Rbt.Library>
libRbt.so (2013.1, Build901 2013/11/27)

>  <Rbt.Parameter_File>
/export/apps/rDock/src/rDock_2013.1_src//data/scripts/dock.prm

>  <Rbt.Receptor>
/home/ziqiaoxu/icml18-jtnn/VAEdesign/targets/RdRp-SARS-CoV-2/pocket_docking.prm

>  <SCORE>
-23.0974

>  <SCORE.INTER>
-16.8871

>  <SCORE.INTER.CONST>
1

>  <SCORE.INTER.POLAR>
0

>  <SCORE.INTER.REPUL>
0.105679

>  <SCORE.INTER.ROT>
4

>  <SCORE.INTER.VDW>
-26.8155

>  <SCORE.INTER.norm>
-0.734221

>  <SCORE.INTRA>
-6.21029

>  <SCORE.INTRA.DIHEDRAL>
-14.3524

>  <SCORE.INTRA.DIHEDRAL.0>
17.6298

>  <SCORE.INTRA.POLAR>
0

>  <SCORE.INTRA.POLAR.0>
0

>  <SCORE.INTRA.REPUL>
0

>  <SCORE.INTRA.REPUL.0>
0

>  <SCORE.INTRA.VDW>
0.965895

>  <SCORE.INTRA.VDW.0>
-2.79846

>  <SCORE.INTRA.norm>
-0.270012

>  <SCORE.RESTR>
0

>  <SCORE.RESTR.CAVITY>
0

>  <SCORE.RESTR.norm>
0

>  <SCORE.SYSTEM>
0

>  <SCORE.SYSTEM.CONST>
0

>  <SCORE.SYSTEM.DIHEDRAL>
0

>  <SCORE.SYSTEM.norm>
0

>  <SCORE.heavy>
23

>  <SCORE.norm>
-1.00423

$$$$
design_10
 OpenBabel05252019093D

 24 27  0  0  0  0  0  0  0  0999 V2000
   45.0723  -44.2704    8.0684 O   0  0  0  0  0  0  0  0  0  0  0  0
   44.4603  -45.0035    7.2659 C   0  0  0  0  0  0  0  0  0  0  0  0
   45.0256  -45.3236    6.0219 N   0  0  0  0  0  0  0  0  0  0  0  0
   46.3127  -44.8363    5.6167 C   0  0  0  0  0  0  0  0  0  0  0  0
   46.5936  -44.9676    4.1400 C   0  0  0  0  0  0  0  0  0  0  0  0
   46.6467  -46.4498    3.7795 C   0  0  0  0  0  0  0  0  0  0  0  0
   46.6148  -46.6335    2.3428 N   0  0  0  0  0  0  0  0  0  0  0  0
   47.6125  -47.0612    1.5396 C   0  0  0  0  0  0  0  0  0  0  0  0
   47.1712  -47.0915    0.2696 N   0  0  0  0  0  0  0  0  0  0  0  0
   45.8799  -46.6844    0.2232 C   0  0  0  0  0  0  0  0  0  0  0  0
   44.9421  -46.5164   -0.7552 C   0  0  0  0  0  0  0  0  0  0  0  0
   43.6519  -46.0679   -0.4906 C   0  0  0  0  0  0  0  0  0  0  0  0
   43.3210  -45.7851    0.8192 C   0  0  0  0  0  0  0  0  0  0  0  0
   44.2598  -45.9511    1.8152 C   0  0  0  0  0  0  0  0  0  0  0  0
   45.5451  -46.4008    1.5309 C   0  0  0  0  0  0  0  0  0  0  0  0
   43.1514  -45.5123    7.6582 C   0  0  0  0  0  0  0  0  0  0  0  0
   42.3729  -46.3844    7.0058 N   0  0  0  0  0  0  0  0  0  0  0  0
   41.2454  -46.5933    7.7007 C   0  0  0  0  0  0  0  0  0  0  0  0
   40.1028  -47.3588    7.5436 C   0  0  0  0  0  0  0  0  0  0  0  0
   39.1110  -47.3218    8.4983 C   0  0  0  0  0  0  0  0  0  0  0  0
   39.2518  -46.5169    9.6229 C   0  0  0  0  0  0  0  0  0  0  0  0
   40.3784  -45.7482    9.7998 C   0  0  0  0  0  0  0  0  0  0  0  0
   41.3566  -45.8031    8.8297 C   0  0  0  0  0  0  0  0  0  0  0  0
   42.4931  -45.1956    8.7467 O   0  0  0  0  0  0  0  0  0  0  0  0
  1  2  2  0  0  0  0
  2  3  1  0  0  0  0
  2 16  1  0  0  0  0
  3  4  1  0  0  0  0
  4  5  1  0  0  0  0
  5  6  1  0  0  0  0
  6  7  1  0  0  0  0
  7  8  1  0  0  0  0
  8  9  2  0  0  0  0
  9 10  1  0  0  0  0
 10 11  2  0  0  0  0
 11 12  1  0  0  0  0
 12 13  2  0  0  0  0
 13 14  1  0  0  0  0
 14 15  2  0  0  0  0
 15  7  1  0  0  0  0
 15 10  1  0  0  0  0
 16 17  2  0  0  0  0
 17 18  1  0  0  0  0
 18 19  2  0  0  0  0
 19 20  1  0  0  0  0
 20 21  2  0  0  0  0
 21 22  1  0  0  0  0
 22 23  2  0  0  0  0
 23 24  1  0  0  0  0
 23 18  1  0  0  0  0
 24 16  1  0  0  0  0
M  END
>  <CHROM.1>
-164.41043644,-64.93318490,167.23159620,110.21876286,-174.53109595,43.90544244
-46.03518557,4.93861159,-2.14594266,-0.25999900,-1.77792311

>  <Name>
design_10

>  <RI>
0

>  <Rbt.Current_Directory>
/home/ziqiaoxu/icml18-jtnn/VAEdesign

>  <Rbt.Executable>
rbdock ($Id: //depot/dev/client3/rdock/2013.1/src/exe/rbdock.cxx#4 $)

>  <Rbt.Library>
libRbt.so (2013.1, Build901 2013/11/27)

>  <Rbt.Parameter_File>
/export/apps/rDock/src/rDock_2013.1_src//data/scripts/dock.prm

>  <Rbt.Receptor>
/home/ziqiaoxu/icml18-jtnn/VAEdesign/targets/RdRp-SARS-CoV-2/pocket_docking.prm

>  <SCORE>
-15.8805

>  <SCORE.INTER>
-16.3068

>  <SCORE.INTER.CONST>
1

>  <SCORE.INTER.POLAR>
0

>  <SCORE.INTER.REPUL>
0.0213919

>  <SCORE.INTER.ROT>
5

>  <SCORE.INTER.VDW>
-26.8137

>  <SCORE.INTER.norm>
-0.679449

>  <SCORE.INTRA>
0.426242

>  <SCORE.INTRA.DIHEDRAL>
0.788626

>  <SCORE.INTRA.DIHEDRAL.0>
3.60042

>  <SCORE.INTRA.POLAR>
0

>  <SCORE.INTRA.POLAR.0>
0

>  <SCORE.INTRA.REPUL>
0

>  <SCORE.INTRA.REPUL.0>
0

>  <SCORE.INTRA.VDW>
0.0319293

>  <SCORE.INTRA.VDW.0>
-1.22575

>  <SCORE.INTRA.norm>
0.0177601

>  <SCORE.RESTR>
0

>  <SCORE.RESTR.CAVITY>
0

>  <SCORE.RESTR.norm>
0

>  <SCORE.SYSTEM>
0

>  <SCORE.SYSTEM.CONST>
0

>  <SCORE.SYSTEM.DIHEDRAL>
0

>  <SCORE.SYSTEM.norm>
0

>  <SCORE.heavy>
24

>  <SCORE.norm>
-0.661689

$$$$
design_14
 OpenBabel05252019093D

 27 29  0  0  0  0  0  0  0  0999 V2000
   39.9971  -37.8724    2.7701 C   0  0  0  0  0  0  0  0  0  0  0  0
   41.2631  -38.3119    2.0959 C   0  0  0  0  0  0  0  0  0  0  0  0
   42.3428  -37.4645    1.9753 C   0  0  0  0  0  0  0  0  0  0  0  0
   43.4716  -37.9080    1.3524 C   0  0  0  0  0  0  0  0  0  0  0  0
   43.5454  -39.2107    0.8378 C   0  0  0  0  0  0  0  0  0  0  0  0
   42.4923  -40.0755    0.9394 C   0  0  0  0  0  0  0  0  0  0  0  0
   42.4760  -41.4456    0.4332 C   0  0  0  0  0  0  0  0  0  0  0  0
   42.2303  -42.5351    1.2270 N   0  0  0  0  0  0  0  0  0  0  0  0
   41.9837  -43.6123    2.0123 C   0  0  0  0  0  0  0  0  0  0  0  0
   40.8296  -43.9352    2.4251 O   0  0  0  0  0  0  0  0  0  0  0  0
   43.0929  -44.4766    2.4437 N   0  0  0  0  0  0  0  0  0  0  0  0
   42.9607  -45.6401    3.2113 C   0  0  0  0  0  0  0  0  0  0  0  0
   43.4094  -45.5612    4.6103 C   0  0  0  0  0  0  0  0  0  0  0  0
   44.6861  -45.2528    4.9884 C   0  0  0  0  0  0  0  0  0  0  0  0
   44.9608  -45.1746    6.3389 C   0  0  0  0  0  0  0  0  0  0  0  0
   43.9958  -45.4017    7.2986 C   0  0  0  0  0  0  0  0  0  0  0  0
   42.6687  -45.7287    6.9509 C   0  0  0  0  0  0  0  0  0  0  0  0
   41.6940  -45.9769    7.9873 C   0  0  0  0  0  0  0  0  0  0  0  0
   42.0226  -45.3529    9.1115 O   0  0  0  0  0  0  0  0  0  0  0  0
   40.5222  -46.7091    8.0513 N   0  0  0  0  0  0  0  0  0  0  0  0
   39.7816  -46.7790    9.3502 C   0  0  0  0  0  0  0  0  0  0  0  0
   38.4532  -46.1757    8.9972 C   0  0  0  0  0  0  0  0  0  0  0  0
   37.8006  -47.0115    8.1594 O   0  0  0  0  0  0  0  0  0  0  0  0
   38.4613  -47.7970    7.2878 C   0  0  0  0  0  0  0  0  0  0  0  0
   39.9048  -47.4193    6.9917 C   0  0  0  0  0  0  0  0  0  0  0  0
   42.4299  -45.7944    5.6038 C   0  0  0  0  0  0  0  0  0  0  0  0
   41.3598  -39.5629    1.5888 C   0  0  0  0  0  0  0  0  0  0  0  0
  1  2  1  0  0  0  0
  2  3  2  0  0  0  0
  3  4  1  0  0  0  0
  4  5  2  0  0  0  0
  5  6  1  0  0  0  0
  6  7  1  0  0  0  0
  6 27  2  0  0  0  0
  7  8  1  0  0  0  0
  8  9  1  0  0  0  0
  9 10  2  0  0  0  0
  9 11  1  0  0  0  0
 11 12  1  0  0  0  0
 12 13  1  0  0  0  0
 13 14  2  0  0  0  0
 14 15  1  0  0  0  0
 15 16  2  0  0  0  0
 16 17  1  0  0  0  0
 17 18  1  0  0  0  0
 17 26  2  0  0  0  0
 18 19  2  0  0  0  0
 18 20  1  0  0  0  0
 20 21  1  0  0  0  0
 21 22  1  0  0  0  0
 22 23  1  0  0  0  0
 23 24  1  0  0  0  0
 24 25  1  0  0  0  0
 25 20  1  0  0  0  0
 26 13  1  0  0  0  0
 27  2  1  0  0  0  0
M  END
>  <CHROM.1>
122.66215087,78.60307884,-107.42118679,-59.59323803,25.52260695,41.73335828
-43.69744943,4.67796340,1.36489368,0.47516180,-0.64398189

>  <Name>
design_14

>  <RI>
0

>  <Rbt.Current_Directory>
/home/ziqiaoxu/icml18-jtnn/VAEdesign

>  <Rbt.Executable>
rbdock ($Id: //depot/dev/client3/rdock/2013.1/src/exe/rbdock.cxx#4 $)

>  <Rbt.Library>
libRbt.so (2013.1, Build901 2013/11/27)

>  <Rbt.Parameter_File>
/export/apps/rDock/src/rDock_2013.1_src//data/scripts/dock.prm

>  <Rbt.Receptor>
/home/ziqiaoxu/icml18-jtnn/VAEdesign/targets/RdRp-SARS-CoV-2/pocket_docking.prm

>  <SCORE>
-19.547

>  <SCORE.INTER>
-20.2973

>  <SCORE.INTER.CONST>
1

>  <SCORE.INTER.POLAR>
-1.14564

>  <SCORE.INTER.REPUL>
0.00203339

>  <SCORE.INTER.ROT>
5

>  <SCORE.INTER.VDW>
-26.8123

>  <SCORE.INTER.norm>
-0.751753

>  <SCORE.INTRA>
0.750367

>  <SCORE.INTRA.DIHEDRAL>
2.31058

>  <SCORE.INTRA.DIHEDRAL.0>
3.079

>  <SCORE.INTRA.POLAR>
0

>  <SCORE.INTRA.POLAR.0>
0

>  <SCORE.INTRA.REPUL>
0

>  <SCORE.INTRA.REPUL.0>
0

>  <SCORE.INTRA.VDW>
-0.404923

>  <SCORE.INTRA.VDW.0>
-0.999357

>  <SCORE.INTRA.norm>
0.0277914

>  <SCORE.RESTR>
0

>  <SCORE.RESTR.CAVITY>
0

>  <SCORE.RESTR.norm>
0

>  <SCORE.SYSTEM>
0

>  <SCORE.SYSTEM.CONST>
0

>  <SCORE.SYSTEM.DIHEDRAL>
0

>  <SCORE.SYSTEM.norm>
0

>  <SCORE.heavy>
27

>  <SCORE.norm>
-0.723961

$$$$
design_16
 OpenBabel05252019093D

 22 24  0  0  0  0  0  0  0  0999 V2000
   39.1442  -46.8200    9.0017 C   0  0  0  0  0  0  0  0  0  0  0  0
   40.3657  -45.9654    9.2518 C   0  0  0  0  0  0  0  0  0  0  0  0
   41.4451  -45.8419    8.5013 N   0  0  0  0  0  0  0  0  0  0  0  0
   42.4037  -45.0549    8.8756 C   0  0  0  0  0  0  0  0  0  0  0  0
   43.6554  -44.8603    8.0813 C   0  0  0  0  0  0  0  0  0  0  0  0
   44.7083  -44.0299    8.3450 C   0  0  0  0  0  0  0  0  0  0  0  0
   45.7268  -44.0307    7.4780 C   0  0  0  0  0  0  0  0  0  0  0  0
   45.6366  -44.8611    6.3957 C   0  0  0  0  0  0  0  0  0  0  0  0
   46.6119  -45.0553    5.3003 C   0  0  0  0  0  0  0  0  0  0  0  0
   47.6413  -44.3579    5.3430 O   0  0  0  0  0  0  0  0  0  0  0  0
   46.3197  -45.9918    4.3063 N   0  0  0  0  0  0  0  0  0  0  0  0
   47.2218  -46.2284    3.2167 C   0  0  0  0  0  0  0  0  0  0  0  0
   46.6047  -46.9796    2.0564 C   0  0  0  0  0  0  0  0  0  0  0  0
   45.6982  -46.0810    1.4025 N   0  0  0  0  0  0  0  0  0  0  0  0
   44.3737  -46.0507    1.9325 C   0  0  0  0  0  0  0  0  0  0  0  0
   43.5297  -45.2499    0.9523 C   0  0  0  0  0  0  0  0  0  0  0  0
   43.3563  -45.9084   -0.2530 O   0  0  0  0  0  0  0  0  0  0  0  0
   44.4558  -46.6845   -0.6027 C   0  0  0  0  0  0  0  0  0  0  0  0
   45.7447  -46.1313   -0.0354 C   0  0  0  0  0  0  0  0  0  0  0  0
   44.1143  -45.6194    6.6312 S   0  0  0  0  0  0  0  0  0  0  0  0
   42.2362  -44.3784   10.0615 C   0  0  0  0  0  0  0  0  0  0  0  0
   40.6987  -44.9244   10.5620 S   0  0  0  0  0  0  0  0  0  0  0  0
  1  2  1  0  0  0  0
  2  3  2  0  0  0  0
  3  4  1  0  0  0  0
  4  5  1  0  0  0  0
  4 21  2  0  0  0  0
  5  6  2  0  0  0  0
  6  7  1  0  0  0  0
  7  8  2  0  0  0  0
  8  9  1  0  0  0  0
  8 20  1  0  0  0  0
  9 10  2  0  0  0  0
  9 11  1  0  0  0  0
 11 12  1  0  0  0  0
 12 13  1  0  0  0  0
 13 14  1  0  0  0  0
 14 15  1  0  0  0  0
 15 16  1  0  0  0  0
 16 17  1  0  0  0  0
 17 18  1  0  0  0  0
 18 19  1  0  0  0  0
 19 14  1  0  0  0  0
 20  5  1  0  0  0  0
 21 22  1  0  0  0  0
 22  2  1  0  0  0  0
M  END
>  <CHROM.1>
177.49913126,-1.61913852,-164.49669012,71.59481548,-87.04548249,43.99636745
-45.50497148,5.53891341,2.02048548,0.20319435,1.37328946

>  <Name>
design_16

>  <RI>
0

>  <Rbt.Current_Directory>
/home/ziqiaoxu/icml18-jtnn/VAEdesign

>  <Rbt.Executable>
rbdock ($Id: //depot/dev/client3/rdock/2013.1/src/exe/rbdock.cxx#4 $)

>  <Rbt.Library>
libRbt.so (2013.1, Build901 2013/11/27)

>  <Rbt.Parameter_File>
/export/apps/rDock/src/rDock_2013.1_src//data/scripts/dock.prm

>  <Rbt.Receptor>
/home/ziqiaoxu/icml18-jtnn/VAEdesign/targets/RdRp-SARS-CoV-2/pocket_docking.prm

>  <SCORE>
-16.6425

>  <SCORE.INTER>
-16.4105

>  <SCORE.INTER.CONST>
1

>  <SCORE.INTER.POLAR>
0

>  <SCORE.INTER.REPUL>
0

>  <SCORE.INTER.ROT>
5

>  <SCORE.INTER.VDW>
-26.8105

>  <SCORE.INTER.norm>
-0.74593

>  <SCORE.INTRA>
-0.232089

>  <SCORE.INTRA.DIHEDRAL>
1.54025

>  <SCORE.INTRA.DIHEDRAL.0>
1.63976

>  <SCORE.INTRA.POLAR>
0

>  <SCORE.INTRA.POLAR.0>
0

>  <SCORE.INTRA.REPUL>
0

>  <SCORE.INTRA.REPUL.0>
0

>  <SCORE.INTRA.VDW>
-1.00221

>  <SCORE.INTRA.VDW.0>
-0.302044

>  <SCORE.INTRA.norm>
-0.0105495

>  <SCORE.RESTR>
0

>  <SCORE.RESTR.CAVITY>
0

>  <SCORE.RESTR.norm>
0

>  <SCORE.SYSTEM>
0

>  <SCORE.SYSTEM.CONST>
0

>  <SCORE.SYSTEM.DIHEDRAL>
0

>  <SCORE.SYSTEM.norm>
0

>  <SCORE.heavy>
22

>  <SCORE.norm>
-0.756479

$$$$
design_17
 OpenBabel05252019093D

 27 29  0  0  0  0  0  0  0  0999 V2000
   40.4361  -36.0121    3.6149 N   0  0  0  0  0  0  0  0  0  0  0  0
   40.4357  -36.8968    4.3884 C   0  0  0  0  0  0  0  0  0  0  0  0
   40.4539  -37.9667    5.3325 C   0  0  0  0  0  0  0  0  0  0  0  0
   40.8979  -39.2317    5.0420 C   0  0  0  0  0  0  0  0  0  0  0  0
   40.8868  -40.2226    6.0095 C   0  0  0  0  0  0  0  0  0  0  0  0
   40.4345  -39.9733    7.2805 C   0  0  0  0  0  0  0  0  0  0  0  0
   40.4235  -41.0318    8.2821 C   0  0  0  0  0  0  0  0  0  0  0  0
   40.9771  -42.0976    7.9853 O   0  0  0  0  0  0  0  0  0  0  0  0
   39.8111  -40.8371    9.5205 N   0  0  0  0  0  0  0  0  0  0  0  0
   39.6595  -41.7144   10.6194 C   0  0  0  0  0  0  0  0  0  0  0  0
   39.4572  -43.1483   10.4435 C   0  0  0  0  0  0  0  0  0  0  0  0
   40.5947  -44.0887   10.4965 C   0  0  0  0  0  0  0  0  0  0  0  0
   40.4676  -45.1293    9.3777 C   0  0  0  0  0  0  0  0  0  0  0  0
   41.4682  -45.3325    8.6983 O   0  0  0  0  0  0  0  0  0  0  0  0
   39.2398  -45.7851    9.1885 N   0  0  0  0  0  0  0  0  0  0  0  0
   38.9340  -46.7512    8.2339 C   0  0  0  0  0  0  0  0  0  0  0  0
   39.3855  -48.0439    8.2626 C   0  0  0  0  0  0  0  0  0  0  0  0
   39.0411  -48.9635    7.2734 C   0  0  0  0  0  0  0  0  0  0  0  0
   38.2394  -48.5854    6.2489 C   0  0  0  0  0  0  0  0  0  0  0  0
   37.7545  -47.3024    6.1646 C   0  0  0  0  0  0  0  0  0  0  0  0
   36.9628  -46.9625    5.1360 N   0  0  0  0  0  0  0  0  0  0  0  0
   36.4668  -45.7380    5.0049 C   0  0  0  0  0  0  0  0  0  0  0  0
   36.7601  -44.7811    5.9356 C   0  0  0  0  0  0  0  0  0  0  0  0
   37.5919  -45.1293    7.0211 C   0  0  0  0  0  0  0  0  0  0  0  0
   38.1047  -46.3981    7.1548 C   0  0  0  0  0  0  0  0  0  0  0  0
   39.9851  -38.7017    7.5828 C   0  0  0  0  0  0  0  0  0  0  0  0
   40.0003  -37.7351    6.6250 C   0  0  0  0  0  0  0  0  0  0  0  0
  1  2  3  0  0  0  0
  2  3  1  0  0  0  0
  3  4  2  0  0  0  0
  4  5  1  0  0  0  0
  5  6  2  0  0  0  0
  6  7  1  0  0  0  0
  6 26  1  0  0  0  0
  7  8  2  0  0  0  0
  7  9  1  0  0  0  0
  9 10  1  0  0  0  0
 10 11  1  0  0  0  0
 11 12  1  0  0  0  0
 12 13  1  0  0  0  0
 13 14  2  0  0  0  0
 13 15  1  0  0  0  0
 15 16  1  0  0  0  0
 16 17  2  0  0  0  0
 17 18  1  0  0  0  0
 18 19  2  0  0  0  0
 19 20  1  0  0  0  0
 20 21  2  0  0  0  0
 21 22  1  0  0  0  0
 22 23  2  0  0  0  0
 23 24  1  0  0  0  0
 24 25  2  0  0  0  0
 25 16  1  0  0  0  0
 25 20  1  0  0  0  0
 26 27  2  0  0  0  0
 27  3  1  0  0  0  0
M  END
>  <CHROM.1>
8.24816829,-34.82176009,95.28677201,-137.13931266,131.87208642,72.53835487
39.46251665,-43.13981151,7.35331328,1.08135326,-1.10449240,-0.59711054

>  <Name>
design_17

>  <RI>
0

>  <Rbt.Current_Directory>
/home/ziqiaoxu/icml18-jtnn/VAEdesign

>  <Rbt.Executable>
rbdock ($Id: //depot/dev/client3/rdock/2013.1/src/exe/rbdock.cxx#4 $)

>  <Rbt.Library>
libRbt.so (2013.1, Build901 2013/11/27)

>  <Rbt.Parameter_File>
/export/apps/rDock/src/rDock_2013.1_src//data/scripts/dock.prm

>  <Rbt.Receptor>
/home/ziqiaoxu/icml18-jtnn/VAEdesign/targets/RdRp-SARS-CoV-2/pocket_docking.prm

>  <SCORE>
-14.2821

>  <SCORE.INTER>
-20.7655

>  <SCORE.INTER.CONST>
1

>  <SCORE.INTER.POLAR>
-1.58084

>  <SCORE.INTER.REPUL>
0.000982585

>  <SCORE.INTER.ROT>
6

>  <SCORE.INTER.VDW>
-26.7956

>  <SCORE.INTER.norm>
-0.769093

>  <SCORE.INTRA>
6.45832

>  <SCORE.INTRA.DIHEDRAL>
18.3466

>  <SCORE.INTRA.DIHEDRAL.0>
3.86893

>  <SCORE.INTRA.POLAR>
0

>  <SCORE.INTRA.POLAR.0>
0

>  <SCORE.INTRA.REPUL>
0

>  <SCORE.INTRA.REPUL.0>
0

>  <SCORE.INTRA.VDW>
-2.71497

>  <SCORE.INTRA.VDW.0>
1.03293

>  <SCORE.INTRA.norm>
0.239197

>  <SCORE.RESTR>
0.025122

>  <SCORE.RESTR.CAVITY>
0.025122

>  <SCORE.RESTR.norm>
0.000930445

>  <SCORE.SYSTEM>
0

>  <SCORE.SYSTEM.CONST>
0

>  <SCORE.SYSTEM.DIHEDRAL>
0

>  <SCORE.SYSTEM.norm>
0

>  <SCORE.heavy>
27

>  <SCORE.norm>
-0.528966

$$$$
design_6
 OpenBabel05252019093D

 22 24  0  0  0  0  0  0  0  0999 V2000
   35.0956  -41.1910    4.2928 N   0  0  0  0  0  0  0  0  0  0  0  0
   35.7397  -41.5748    5.8239 S   0  0  0  0  0  0  0  0  0  0  0  0
   36.8192  -40.5991    6.1818 O   0  0  0  0  0  0  0  0  0  0  0  0
   34.6364  -41.4432    6.8459 O   0  0  0  0  0  0  0  0  0  0  0  0
   36.3881  -43.2049    5.8901 C   0  0  0  0  0  0  0  0  0  0  0  0
   37.6764  -43.4669    6.3032 C   0  0  0  0  0  0  0  0  0  0  0  0
   38.1611  -44.7619    6.3455 C   0  0  0  0  0  0  0  0  0  0  0  0
   37.3835  -45.8420    5.9789 C   0  0  0  0  0  0  0  0  0  0  0  0
   37.8437  -47.2325    6.0035 C   0  0  0  0  0  0  0  0  0  0  0  0
   39.2638  -47.3626    5.7516 N   0  0  0  0  0  0  0  0  0  0  0  0
   39.9255  -48.1323    6.7838 C   0  0  0  0  0  0  0  0  0  0  0  0
   40.0319  -47.2426    7.9869 C   0  0  0  0  0  0  0  0  0  0  0  0
   39.1744  -47.1512    9.0626 C   0  0  0  0  0  0  0  0  0  0  0  0
   39.6495  -46.2273    9.9127 N   0  0  0  0  0  0  0  0  0  0  0  0
   40.7942  -45.6907    9.4541 C   0  0  0  0  0  0  0  0  0  0  0  0
   41.6377  -44.7293    9.9558 C   0  0  0  0  0  0  0  0  0  0  0  0
   42.7569  -44.3907    9.2311 C   0  0  0  0  0  0  0  0  0  0  0  0
   43.0142  -45.0096    8.0308 C   0  0  0  0  0  0  0  0  0  0  0  0
   42.1562  -45.9649    7.5541 C   0  0  0  0  0  0  0  0  0  0  0  0
   41.0342  -46.3261    8.2481 C   0  0  0  0  0  0  0  0  0  0  0  0
   36.0996  -45.5746    5.5677 C   0  0  0  0  0  0  0  0  0  0  0  0
   35.5980  -44.2741    5.5203 C   0  0  0  0  0  0  0  0  0  0  0  0
  1  2  1  0  0  0  0
  2  3  2  0  0  0  0
  2  4  2  0  0  0  0
  2  5  1  0  0  0  0
  5  6  2  0  0  0  0
  6  7  1  0  0  0  0
  7  8  2  0  0  0  0
  8  9  1  0  0  0  0
  8 21  1  0  0  0  0
  9 10  1  0  0  0  0
 10 11  1  0  0  0  0
 11 12  1  0  0  0  0
 12 13  2  0  0  0  0
 13 14  1  0  0  0  0
 14 15  1  0  0  0  0
 15 16  2  0  0  0  0
 16 17  1  0  0  0  0
 17 18  2  0  0  0  0
 18 19  1  0  0  0  0
 19 20  2  0  0  0  0
 20 12  1  0  0  0  0
 20 15  1  0  0  0  0
 21 22  2  0  0  0  0
 22  5  1  0  0  0  0
M  END
>  <CHROM.1>
175.28296477,126.16827789,-30.72373443,127.06426786,-74.95156202,94.38123648
38.40941382,-44.60244559,7.00349787,-2.63333250,0.57839340,-2.94462097

>  <Name>
design_6

>  <RI>
0

>  <Rbt.Current_Directory>
/home/ziqiaoxu/icml18-jtnn/VAEdesign

>  <Rbt.Executable>
rbdock ($Id: //depot/dev/client3/rdock/2013.1/src/exe/rbdock.cxx#4 $)

>  <Rbt.Library>
libRbt.so (2013.1, Build901 2013/11/27)

>  <Rbt.Parameter_File>
/export/apps/rDock/src/rDock_2013.1_src//data/scripts/dock.prm

>  <Rbt.Receptor>
/home/ziqiaoxu/icml18-jtnn/VAEdesign/targets/RdRp-SARS-CoV-2/pocket_docking.prm

>  <SCORE>
-24.495

>  <SCORE.INTER>
-24.445

>  <SCORE.INTER.CONST>
1

>  <SCORE.INTER.POLAR>
-2.66291

>  <SCORE.INTER.REPUL>
0

>  <SCORE.INTER.ROT>
6

>  <SCORE.INTER.VDW>
-26.7911

>  <SCORE.INTER.norm>
-1.11114

>  <SCORE.INTRA>
-0.0500015

>  <SCORE.INTRA.DIHEDRAL>
2.8682

>  <SCORE.INTRA.DIHEDRAL.0>
2.98223

>  <SCORE.INTRA.POLAR>
0

>  <SCORE.INTRA.POLAR.0>
0

>  <SCORE.INTRA.REPUL>
0

>  <SCORE.INTRA.REPUL.0>
0

>  <SCORE.INTRA.VDW>
-1.4841

>  <SCORE.INTRA.VDW.0>
-0.986652

>  <SCORE.INTRA.norm>
-0.0022728

>  <SCORE.RESTR>
0

>  <SCORE.RESTR.CAVITY>
0

>  <SCORE.RESTR.norm>
0

>  <SCORE.SYSTEM>
0

>  <SCORE.SYSTEM.CONST>
0

>  <SCORE.SYSTEM.DIHEDRAL>
0

>  <SCORE.SYSTEM.norm>
0

>  <SCORE.heavy>
22

>  <SCORE.norm>
-1.11341

$$$$
design_17
 OpenBabel05252019093D

 27 29  0  0  0  0  0  0  0  0999 V2000
   39.4416  -49.1828    6.4985 C   0  0  0  0  0  0  0  0  0  0  0  0
   38.4432  -48.0422    6.4392 C   0  0  0  0  0  0  0  0  0  0  0  0
   38.3478  -47.4671    7.7191 O   0  0  0  0  0  0  0  0  0  0  0  0
   39.3655  -46.7269    8.3018 C   0  0  0  0  0  0  0  0  0  0  0  0
   39.3044  -46.4630    9.6590 C   0  0  0  0  0  0  0  0  0  0  0  0
   40.2816  -45.7349   10.2970 C   0  0  0  0  0  0  0  0  0  0  0  0
   41.3628  -45.2546    9.5349 C   0  0  0  0  0  0  0  0  0  0  0  0
   41.4690  -45.4880    8.1918 C   0  0  0  0  0  0  0  0  0  0  0  0
   42.5328  -45.0032    7.4202 N   0  0  0  0  0  0  0  0  0  0  0  0
   43.6850  -44.3309    7.7936 C   0  0  0  0  0  0  0  0  0  0  0  0
   43.9544  -44.0370    8.9689 O   0  0  0  0  0  0  0  0  0  0  0  0
   44.6944  -43.9132    6.7580 C   0  0  0  0  0  0  0  0  0  0  0  0
   45.2816  -45.0884    6.1682 N   0  0  0  0  0  0  0  0  0  0  0  0
   45.4869  -45.1232    4.7362 C   0  0  0  0  0  0  0  0  0  0  0  0
   45.1427  -44.1289    4.0809 O   0  0  0  0  0  0  0  0  0  0  0  0
   46.0591  -46.2551    4.1249 N   0  0  0  0  0  0  0  0  0  0  0  0
   46.3365  -46.4813    2.7683 C   0  0  0  0  0  0  0  0  0  0  0  0
   47.5527  -46.9302    2.3008 C   0  0  0  0  0  0  0  0  0  0  0  0
   47.8184  -47.1514    0.9491 C   0  0  0  0  0  0  0  0  0  0  0  0
   46.8488  -46.9222    0.0179 C   0  0  0  0  0  0  0  0  0  0  0  0
   45.6163  -46.4690    0.4730 C   0  0  0  0  0  0  0  0  0  0  0  0
   44.6773  -46.2559   -0.5168 C   0  0  0  0  0  0  0  0  0  0  0  0
   43.4306  -45.8098   -0.1804 C   0  0  0  0  0  0  0  0  0  0  0  0
   43.1642  -45.5908    1.1464 C   0  0  0  0  0  0  0  0  0  0  0  0
   44.1024  -45.8014    2.1608 C   0  0  0  0  0  0  0  0  0  0  0  0
   45.3495  -46.2487    1.8122 C   0  0  0  0  0  0  0  0  0  0  0  0
   40.4329  -46.2350    7.6283 C   0  0  0  0  0  0  0  0  0  0  0  0
  1  2  1  0  0  0  0
  2  3  1  0  0  0  0
  3  4  1  0  0  0  0
  4  5  2  0  0  0  0
  5  6  1  0  0  0  0
  6  7  2  0  0  0  0
  7  8  1  0  0  0  0
  8  9  1  0  0  0  0
  8 27  2  0  0  0  0
  9 10  1  0  0  0  0
 10 11  2  0  0  0  0
 10 12  1  0  0  0  0
 12 13  1  0  0  0  0
 13 14  1  0  0  0  0
 14 15  2  0  0  0  0
 14 16  1  0  0  0  0
 16 17  1  0  0  0  0
 17 18  2  0  0  0  0
 18 19  1  0  0  0  0
 19 20  2  0  0  0  0
 20 21  1  0  0  0  0
 21 22  2  0  0  0  0
 22 23  1  0  0  0  0
 23 24  2  0  0  0  0
 24 25  1  0  0  0  0
 25 26  2  0  0  0  0
 26 17  1  0  0  0  0
 26 21  1  0  0  0  0
 27  4  1  0  0  0  0
M  END
>  <CHROM.1>
69.86861857,-165.50010921,5.56616771,-65.78049529,137.58024249,130.34060544
43.29897558,-46.00208454,5.09140410,2.30851833,0.41341537,1.22999710

>  <Name>
design_17

>  <RI>
0

>  <Rbt.Current_Directory>
/home/ziqiaoxu/icml18-jtnn/VAEdesign

>  <Rbt.Executable>
rbdock ($Id: //depot/dev/client3/rdock/2013.1/src/exe/rbdock.cxx#4 $)

>  <Rbt.Library>
libRbt.so (2013.1, Build901 2013/11/27)

>  <Rbt.Parameter_File>
/export/apps/rDock/src/rDock_2013.1_src//data/scripts/dock.prm

>  <Rbt.Receptor>
/home/ziqiaoxu/icml18-jtnn/VAEdesign/targets/RdRp-SARS-CoV-2/pocket_docking.prm

>  <SCORE>
-17.8271

>  <SCORE.INTER>
-20.9964

>  <SCORE.INTER.CONST>
1

>  <SCORE.INTER.POLAR>
-1.64892

>  <SCORE.INTER.REPUL>
0

>  <SCORE.INTER.ROT>
6

>  <SCORE.INTER.VDW>
-26.79

>  <SCORE.INTER.norm>
-0.777643

>  <SCORE.INTRA>
3.16927

>  <SCORE.INTRA.DIHEDRAL>
7.89403

>  <SCORE.INTRA.DIHEDRAL.0>
2.95162

>  <SCORE.INTRA.POLAR>
0

>  <SCORE.INTRA.POLAR.0>
0

>  <SCORE.INTRA.REPUL>
0

>  <SCORE.INTRA.REPUL.0>
0

>  <SCORE.INTRA.VDW>
-0.777745

>  <SCORE.INTRA.VDW.0>
0.3991

>  <SCORE.INTRA.norm>
0.11738

>  <SCORE.RESTR>
0

>  <SCORE.RESTR.CAVITY>
0

>  <SCORE.RESTR.norm>
0

>  <SCORE.SYSTEM>
0

>  <SCORE.SYSTEM.CONST>
0

>  <SCORE.SYSTEM.DIHEDRAL>
0

>  <SCORE.SYSTEM.norm>
0

>  <SCORE.heavy>
27

>  <SCORE.norm>
-0.660263

$$$$
design_8
 OpenBabel05252019093D

 24 26  0  0  0  0  0  0  0  0999 V2000
   36.3076  -44.8991    5.5553 C   0  0  0  0  0  0  0  0  0  0  0  0
   37.1463  -45.9781    6.1679 C   0  0  0  0  0  0  0  0  0  0  0  0
   37.4938  -47.1201    5.4411 C   0  0  0  0  0  0  0  0  0  0  0  0
   38.2531  -48.1006    5.9905 C   0  0  0  0  0  0  0  0  0  0  0  0
   38.6946  -47.9755    7.2907 C   0  0  0  0  0  0  0  0  0  0  0  0
   38.3742  -46.8525    8.0595 C   0  0  0  0  0  0  0  0  0  0  0  0
   38.8834  -46.7835    9.4528 C   0  0  0  0  0  0  0  0  0  0  0  0
   40.0679  -45.4719    9.5324 S   0  0  0  0  0  0  0  0  0  0  0  0
   40.6639  -45.5055   10.9454 O   0  0  0  0  0  0  0  0  0  0  0  0
   39.3561  -44.1661    9.3962 O   0  0  0  0  0  0  0  0  0  0  0  0
   41.3700  -45.6506    8.4168 C   0  0  0  0  0  0  0  0  0  0  0  0
   41.4300  -46.4861    7.3613 N   0  0  0  0  0  0  0  0  0  0  0  0
   42.5720  -46.3416    6.7465 N   0  0  0  0  0  0  0  0  0  0  0  0
   43.3102  -45.3924    7.3884 C   0  0  0  0  0  0  0  0  0  0  0  0
   44.6212  -45.0148    6.9046 C   0  0  0  0  0  0  0  0  0  0  0  0
   45.4553  -44.1140    7.5120 C   0  0  0  0  0  0  0  0  0  0  0  0
   46.6939  -43.7768    6.9555 C   0  0  0  0  0  0  0  0  0  0  0  0
   47.1141  -44.3421    5.7782 C   0  0  0  0  0  0  0  0  0  0  0  0
   46.2855  -45.2471    5.1623 C   0  0  0  0  0  0  0  0  0  0  0  0
   46.7181  -45.8843    3.8698 C   0  0  0  0  0  0  0  0  0  0  0  0
   45.0946  -45.5667    5.7030 C   0  0  0  0  0  0  0  0  0  0  0  0
   42.5646  -44.9855    8.3951 N   0  0  0  0  0  0  0  0  0  0  0  0
   42.8879  -43.9470    9.3561 C   0  0  0  0  0  0  0  0  0  0  0  0
   37.6057  -45.8935    7.4566 C   0  0  0  0  0  0  0  0  0  0  0  0
  1  2  1  0  0  0  0
  2  3  2  0  0  0  0
  3  4  1  0  0  0  0
  4  5  2  0  0  0  0
  5  6  1  0  0  0  0
  6  7  1  0  0  0  0
  6 24  2  0  0  0  0
  7  8  1  0  0  0  0
  8  9  2  0  0  0  0
  8 10  2  0  0  0  0
  8 11  1  0  0  0  0
 11 12  2  0  0  0  0
 12 13  1  0  0  0  0
 13 14  2  0  0  0  0
 14 15  1  0  0  0  0
 14 22  1  0  0  0  0
 15 16  2  0  0  0  0
 16 17  1  0  0  0  0
 17 18  2  0  0  0  0
 18 19  1  0  0  0  0
 19 20  1  0  0  0  0
 19 21  2  0  0  0  0
 21 15  1  0  0  0  0
 22 23  1  0  0  0  0
 22 11  1  0  0  0  0
 24  2  1  0  0  0  0
M  END
>  <CHROM.1>
112.55722779,-175.13393635,14.44491830,-177.21795823,41.50751849,-45.61389872
7.45553255,3.02369849,0.22095444,1.26565490

>  <Name>
design_8

>  <RI>
0

>  <Rbt.Current_Directory>
/home/ziqiaoxu/icml18-jtnn/VAEdesign

>  <Rbt.Executable>
rbdock ($Id: //depot/dev/client3/rdock/2013.1/src/exe/rbdock.cxx#4 $)

>  <Rbt.Library>
libRbt.so (2013.1, Build901 2013/11/27)

>  <Rbt.Parameter_File>
/export/apps/rDock/src/rDock_2013.1_src//data/scripts/dock.prm

>  <Rbt.Receptor>
/home/ziqiaoxu/icml18-jtnn/VAEdesign/targets/RdRp-SARS-CoV-2/pocket_docking.prm

>  <SCORE>
-17.9144

>  <SCORE.INTER>
-17.3809

>  <SCORE.INTER.CONST>
1

>  <SCORE.INTER.POLAR>
0

>  <SCORE.INTER.REPUL>
0

>  <SCORE.INTER.ROT>
4

>  <SCORE.INTER.VDW>
-26.7809

>  <SCORE.INTER.norm>
-0.724206

>  <SCORE.INTRA>
-0.533504

>  <SCORE.INTRA.DIHEDRAL>
-0.356114

>  <SCORE.INTRA.DIHEDRAL.0>
2.46062

>  <SCORE.INTRA.POLAR>
0

>  <SCORE.INTRA.POLAR.0>
0

>  <SCORE.INTRA.REPUL>
0

>  <SCORE.INTRA.REPUL.0>
0

>  <SCORE.INTRA.VDW>
-0.355447

>  <SCORE.INTRA.VDW.0>
-2.26172

>  <SCORE.INTRA.norm>
-0.0222293

>  <SCORE.RESTR>
0

>  <SCORE.RESTR.CAVITY>
0

>  <SCORE.RESTR.norm>
0

>  <SCORE.SYSTEM>
0

>  <SCORE.SYSTEM.CONST>
0

>  <SCORE.SYSTEM.DIHEDRAL>
0

>  <SCORE.SYSTEM.norm>
0

>  <SCORE.heavy>
24

>  <SCORE.norm>
-0.746435

$$$$
design_1
 OpenBabel05252019093D

 25 27  0  0  0  0  0  0  0  0999 V2000
   39.3669  -36.0207    2.9847 N   0  0  0  0  0  0  0  0  0  0  0  0
   40.0563  -37.2540    3.1560 C   0  0  0  0  0  0  0  0  0  0  0  0
   40.7422  -37.7061    2.2301 O   0  0  0  0  0  0  0  0  0  0  0  0
   39.9185  -37.9364    4.4357 C   0  0  0  0  0  0  0  0  0  0  0  0
   39.6163  -37.2527    5.5992 C   0  0  0  0  0  0  0  0  0  0  0  0
   39.4819  -37.8642    6.8080 C   0  0  0  0  0  0  0  0  0  0  0  0
   39.6569  -39.2526    6.8841 C   0  0  0  0  0  0  0  0  0  0  0  0
   39.4961  -39.8767    8.1390 N   0  0  0  0  0  0  0  0  0  0  0  0
   39.5066  -41.2439    8.4630 C   0  0  0  0  0  0  0  0  0  0  0  0
   39.6914  -42.0976    7.5635 O   0  0  0  0  0  0  0  0  0  0  0  0
   39.3060  -41.6785    9.8248 N   0  0  0  0  0  0  0  0  0  0  0  0
   39.3169  -43.0613   10.1743 C   0  0  0  0  0  0  0  0  0  0  0  0
   40.6355  -43.5949   10.6505 C   0  0  0  0  0  0  0  0  0  0  0  0
   40.6610  -45.0907   10.7392 C   0  0  0  0  0  0  0  0  0  0  0  0
   40.7105  -45.8009    9.4674 C   0  0  0  0  0  0  0  0  0  0  0  0
   41.7507  -45.7349    8.5580 C   0  0  0  0  0  0  0  0  0  0  0  0
   41.7354  -46.4360    7.3699 C   0  0  0  0  0  0  0  0  0  0  0  0
   40.6618  -47.2406    7.0446 C   0  0  0  0  0  0  0  0  0  0  0  0
   39.6115  -47.3222    7.9370 C   0  0  0  0  0  0  0  0  0  0  0  0
   39.6460  -46.6098    9.1258 C   0  0  0  0  0  0  0  0  0  0  0  0
   38.6943  -48.1899    7.3497 O   0  0  0  0  0  0  0  0  0  0  0  0
   39.3811  -48.9946    6.3933 C   0  0  0  0  0  0  0  0  0  0  0  0
   40.3644  -48.0556    5.9384 O   0  0  0  0  0  0  0  0  0  0  0  0
   39.9562  -39.9334    5.7320 C   0  0  0  0  0  0  0  0  0  0  0  0
   40.0897  -39.2857    4.5021 C   0  0  0  0  0  0  0  0  0  0  0  0
  1  2  1  0  0  0  0
  2  3  2  0  0  0  0
  2  4  1  0  0  0  0
  4  5  2  0  0  0  0
  5  6  1  0  0  0  0
  6  7  2  0  0  0  0
  7  8  1  0  0  0  0
  7 24  1  0  0  0  0
  8  9  1  0  0  0  0
  9 10  2  0  0  0  0
  9 11  1  0  0  0  0
 11 12  1  0  0  0  0
 12 13  1  0  0  0  0
 13 14  1  0  0  0  0
 14 15  1  0  0  0  0
 15 16  2  0  0  0  0
 16 17  1  0  0  0  0
 17 18  2  0  0  0  0
 18 19  1  0  0  0  0
 19 20  2  0  0  0  0
 19 21  1  0  0  0  0
 20 15  1  0  0  0  0
 21 22  1  0  0  0  0
 22 23  1  0  0  0  0
 23 18  1  0  0  0  0
 24 25  2  0  0  0  0
 25  4  1  0  0  0  0
M  END
>  <CHROM.1>
-25.35088685,174.19288998,94.49648509,-168.49081962,72.96162213,63.84447984
39.98217759,-42.54425770,7.06209942,-2.12753758,-1.51325623,2.21149915

>  <Name>
design_1

>  <RI>
0

>  <Rbt.Current_Directory>
/home/ziqiaoxu/icml18-jtnn/VAEdesign

>  <Rbt.Executable>
rbdock ($Id: //depot/dev/client3/rdock/2013.1/src/exe/rbdock.cxx#4 $)

>  <Rbt.Library>
libRbt.so (2013.1, Build901 2013/11/27)

>  <Rbt.Parameter_File>
/export/apps/rDock/src/rDock_2013.1_src//data/scripts/dock.prm

>  <Rbt.Receptor>
/home/ziqiaoxu/icml18-jtnn/VAEdesign/targets/RdRp-SARS-CoV-2/pocket_docking.prm

>  <SCORE>
-22.8204

>  <SCORE.INTER>
-23.6228

>  <SCORE.INTER.CONST>
1

>  <SCORE.INTER.POLAR>
-2.42665

>  <SCORE.INTER.REPUL>
0.000518241

>  <SCORE.INTER.ROT>
6

>  <SCORE.INTER.VDW>
-26.7748

>  <SCORE.INTER.norm>
-0.944912

>  <SCORE.INTRA>
0.510791

>  <SCORE.INTRA.DIHEDRAL>
2.44845

>  <SCORE.INTRA.DIHEDRAL.0>
3.02076

>  <SCORE.INTRA.POLAR>
0

>  <SCORE.INTRA.POLAR.0>
0

>  <SCORE.INTRA.REPUL>
0

>  <SCORE.INTRA.REPUL.0>
0

>  <SCORE.INTRA.VDW>
-0.713434

>  <SCORE.INTRA.VDW.0>
-0.630566

>  <SCORE.INTRA.norm>
0.0204316

>  <SCORE.RESTR>
0.291627

>  <SCORE.RESTR.CAVITY>
0.291627

>  <SCORE.RESTR.norm>
0.0116651

>  <SCORE.SYSTEM>
0

>  <SCORE.SYSTEM.CONST>
0

>  <SCORE.SYSTEM.DIHEDRAL>
0

>  <SCORE.SYSTEM.norm>
0

>  <SCORE.heavy>
25

>  <SCORE.norm>
-0.912816

$$$$
design_12
 OpenBabel05252019093D

 23 25  0  0  0  0  0  0  0  0999 V2000
   39.8811  -36.3461    1.8864 C   0  0  0  0  0  0  0  0  0  0  0  0
   39.8920  -37.0777    3.1800 C   0  0  0  0  0  0  0  0  0  0  0  0
   40.1535  -36.3850    4.3458 C   0  0  0  0  0  0  0  0  0  0  0  0
   40.1715  -37.0608    5.5570 C   0  0  0  0  0  0  0  0  0  0  0  0
   39.9346  -38.4128    5.6366 C   0  0  0  0  0  0  0  0  0  0  0  0
   39.9641  -39.0780    6.9503 C   0  0  0  0  0  0  0  0  0  0  0  0
   39.4266  -40.1666    7.4239 N   0  0  0  0  0  0  0  0  0  0  0  0
   39.6349  -40.5618    8.6302 C   0  0  0  0  0  0  0  0  0  0  0  0
   39.0631  -41.8310    9.2384 C   0  0  0  0  0  0  0  0  0  0  0  0
   39.9977  -42.9877    9.0485 C   0  0  0  0  0  0  0  0  0  0  0  0
   40.8987  -42.8805    8.2052 O   0  0  0  0  0  0  0  0  0  0  0  0
   39.8323  -44.1507    9.8192 N   0  0  0  0  0  0  0  0  0  0  0  0
   40.6522  -45.3107    9.7643 C   0  0  0  0  0  0  0  0  0  0  0  0
   40.3137  -46.2890    8.7127 C   0  0  0  0  0  0  0  0  0  0  0  0
   39.2630  -47.1932    8.9375 C   0  0  0  0  0  0  0  0  0  0  0  0
   38.8971  -48.1277    7.9940 C   0  0  0  0  0  0  0  0  0  0  0  0
   39.5556  -48.2020    6.7944 C   0  0  0  0  0  0  0  0  0  0  0  0
   40.5917  -47.3252    6.5494 C   0  0  0  0  0  0  0  0  0  0  0  0
   40.9512  -46.3845    7.5139 C   0  0  0  0  0  0  0  0  0  0  0  0
   40.4678  -39.7623    9.4119 C   0  0  0  0  0  0  0  0  0  0  0  0
   40.8687  -38.5202    8.3278 S   0  0  0  0  0  0  0  0  0  0  0  0
   39.6769  -39.0847    4.4760 C   0  0  0  0  0  0  0  0  0  0  0  0
   39.6530  -38.4247    3.2393 C   0  0  0  0  0  0  0  0  0  0  0  0
  1  2  1  0  0  0  0
  2  3  2  0  0  0  0
  3  4  1  0  0  0  0
  4  5  2  0  0  0  0
  5  6  1  0  0  0  0
  5 22  1  0  0  0  0
  6  7  2  0  0  0  0
  7  8  1  0  0  0  0
  8  9  1  0  0  0  0
  8 20  2  0  0  0  0
  9 10  1  0  0  0  0
 10 11  2  0  0  0  0
 10 12  1  0  0  0  0
 12 13  1  0  0  0  0
 13 14  1  0  0  0  0
 14 15  2  0  0  0  0
 15 16  1  0  0  0  0
 16 17  2  0  0  0  0
 17 18  1  0  0  0  0
 18 19  2  0  0  0  0
 19 14  1  0  0  0  0
 20 21  1  0  0  0  0
 21  6  1  0  0  0  0
 22 23  2  0  0  0  0
 23  2  1  0  0  0  0
M  END
>  <CHROM.1>
155.80662418,91.04953328,-16.47454907,-84.41356028,-80.96292621,40.04300154
-41.62940708,7.11957441,1.45824040,-1.47933617,-0.49057029

>  <Name>
design_12

>  <RI>
0

>  <Rbt.Current_Directory>
/home/ziqiaoxu/icml18-jtnn/VAEdesign

>  <Rbt.Executable>
rbdock ($Id: //depot/dev/client3/rdock/2013.1/src/exe/rbdock.cxx#4 $)

>  <Rbt.Library>
libRbt.so (2013.1, Build901 2013/11/27)

>  <Rbt.Parameter_File>
/export/apps/rDock/src/rDock_2013.1_src//data/scripts/dock.prm

>  <Rbt.Receptor>
/home/ziqiaoxu/icml18-jtnn/VAEdesign/targets/RdRp-SARS-CoV-2/pocket_docking.prm

>  <SCORE>
-18.2799

>  <SCORE.INTER>
-19.6633

>  <SCORE.INTER.CONST>
1

>  <SCORE.INTER.POLAR>
-1.01632

>  <SCORE.INTER.REPUL>
0.03263

>  <SCORE.INTER.ROT>
5

>  <SCORE.INTER.VDW>
-26.7709

>  <SCORE.INTER.norm>
-0.854925

>  <SCORE.INTRA>
1.38336

>  <SCORE.INTRA.DIHEDRAL>
1.97663

>  <SCORE.INTRA.DIHEDRAL.0>
5.07409

>  <SCORE.INTRA.POLAR>
0

>  <SCORE.INTRA.POLAR.0>
0

>  <SCORE.INTRA.REPUL>
0

>  <SCORE.INTRA.REPUL.0>
0

>  <SCORE.INTRA.VDW>
0.39505

>  <SCORE.INTRA.VDW.0>
-2.39164

>  <SCORE.INTRA.norm>
0.0601462

>  <SCORE.RESTR>
0

>  <SCORE.RESTR.CAVITY>
0

>  <SCORE.RESTR.norm>
0

>  <SCORE.SYSTEM>
0

>  <SCORE.SYSTEM.CONST>
0

>  <SCORE.SYSTEM.DIHEDRAL>
0

>  <SCORE.SYSTEM.norm>
0

>  <SCORE.heavy>
23

>  <SCORE.norm>
-0.794778

$$$$
design_9
 OpenBabel05252019093D

 22 24  0  0  0  0  0  0  0  0999 V2000
   41.1854  -44.6082   10.7908 C   0  0  0  0  0  0  0  0  0  0  0  0
   40.7378  -45.4906    9.6811 C   0  0  0  0  0  0  0  0  0  0  0  0
   41.5064  -45.5920    8.5362 C   0  0  0  0  0  0  0  0  0  0  0  0
   41.0969  -46.4136    7.4941 C   0  0  0  0  0  0  0  0  0  0  0  0
   39.9073  -47.1278    7.6225 C   0  0  0  0  0  0  0  0  0  0  0  0
   39.3779  -48.1774    6.2992 S   0  0  0  0  0  0  0  0  0  0  0  0
   40.3766  -48.1027    5.1810 O   0  0  0  0  0  0  0  0  0  0  0  0
   39.3296  -49.5687    6.8605 O   0  0  0  0  0  0  0  0  0  0  0  0
   37.8361  -47.6197    5.7610 N   0  0  0  0  0  0  0  0  0  0  0  0
   37.4209  -46.2754    5.8056 C   0  0  0  0  0  0  0  0  0  0  0  0
   36.1405  -45.9314    5.4402 C   0  0  0  0  0  0  0  0  0  0  0  0
   35.7622  -44.5996    5.4931 C   0  0  0  0  0  0  0  0  0  0  0  0
   36.6750  -43.6545    5.9093 C   0  0  0  0  0  0  0  0  0  0  0  0
   37.9588  -43.9942    6.2764 C   0  0  0  0  0  0  0  0  0  0  0  0
   38.3329  -45.3152    6.2235 C   0  0  0  0  0  0  0  0  0  0  0  0
   38.5830  -42.8730    6.6231 O   0  0  0  0  0  0  0  0  0  0  0  0
   37.7714  -41.8534    6.4964 C   0  0  0  0  0  0  0  0  0  0  0  0
   38.0662  -40.6472    6.7487 O   0  0  0  0  0  0  0  0  0  0  0  0
   36.5994  -42.3127    6.0606 N   0  0  0  0  0  0  0  0  0  0  0  0
   35.3857  -41.5383    5.7728 C   0  0  0  0  0  0  0  0  0  0  0  0
   39.1442  -47.0227    8.7677 C   0  0  0  0  0  0  0  0  0  0  0  0
   39.5637  -46.2014    9.7966 C   0  0  0  0  0  0  0  0  0  0  0  0
  1  2  1  0  0  0  0
  2  3  2  0  0  0  0
  3  4  1  0  0  0  0
  4  5  2  0  0  0  0
  5  6  1  0  0  0  0
  5 21  1  0  0  0  0
  6  7  2  0  0  0  0
  6  8  2  0  0  0  0
  6  9  1  0  0  0  0
  9 10  1  0  0  0  0
 10 11  2  0  0  0  0
 11 12  1  0  0  0  0
 12 13  2  0  0  0  0
 13 14  1  0  0  0  0
 14 15  2  0  0  0  0
 14 16  1  0  0  0  0
 15 10  1  0  0  0  0
 16 17  1  0  0  0  0
 17 18  2  0  0  0  0
 17 19  1  0  0  0  0
 19 20  1  0  0  0  0
 19 13  1  0  0  0  0
 21 22  2  0  0  0  0
 22  2  1  0  0  0  0
M  END
>  <CHROM.1>
-0.32566255,30.83426880,-175.55235102,38.63320861,-45.39345587,6.92412818
-0.82421326,-0.76167137,0.33444877

>  <Name>
design_9

>  <RI>
0

>  <Rbt.Current_Directory>
/home/ziqiaoxu/icml18-jtnn/VAEdesign

>  <Rbt.Executable>
rbdock ($Id: //depot/dev/client3/rdock/2013.1/src/exe/rbdock.cxx#4 $)

>  <Rbt.Library>
libRbt.so (2013.1, Build901 2013/11/27)

>  <Rbt.Parameter_File>
/export/apps/rDock/src/rDock_2013.1_src//data/scripts/dock.prm

>  <Rbt.Receptor>
/home/ziqiaoxu/icml18-jtnn/VAEdesign/targets/RdRp-SARS-CoV-2/pocket_docking.prm

>  <SCORE>
-20.8081

>  <SCORE.INTER>
-18.3684

>  <SCORE.INTER.CONST>
1

>  <SCORE.INTER.POLAR>
0

>  <SCORE.INTER.REPUL>
0

>  <SCORE.INTER.ROT>
3

>  <SCORE.INTER.VDW>
-26.7684

>  <SCORE.INTER.norm>
-0.834928

>  <SCORE.INTRA>
-2.43969

>  <SCORE.INTRA.DIHEDRAL>
-6.43651

>  <SCORE.INTRA.DIHEDRAL.0>
8.91488

>  <SCORE.INTRA.POLAR>
0

>  <SCORE.INTRA.POLAR.0>
0

>  <SCORE.INTRA.REPUL>
0

>  <SCORE.INTRA.REPUL.0>
0

>  <SCORE.INTRA.VDW>
0.778568

>  <SCORE.INTRA.VDW.0>
-2.20741

>  <SCORE.INTRA.norm>
-0.110895

>  <SCORE.RESTR>
0

>  <SCORE.RESTR.CAVITY>
0

>  <SCORE.RESTR.norm>
0

>  <SCORE.SYSTEM>
0

>  <SCORE.SYSTEM.CONST>
0

>  <SCORE.SYSTEM.DIHEDRAL>
0

>  <SCORE.SYSTEM.norm>
0

>  <SCORE.heavy>
22

>  <SCORE.norm>
-0.945823

$$$$
design_2
 OpenBabel05252019093D

 25 26  0  0  0  0  0  0  0  0999 V2000
   42.2514  -44.4980    9.5126 C   0  0  0  0  0  0  0  0  0  0  0  0
   41.3045  -45.4845    8.8836 C   0  0  0  0  0  0  0  0  0  0  0  0
   40.0627  -45.7801    9.4667 C   0  0  0  0  0  0  0  0  0  0  0  0
   39.2795  -46.7594    8.9488 C   0  0  0  0  0  0  0  0  0  0  0  0
   39.6152  -47.5194    7.8337 C   0  0  0  0  0  0  0  0  0  0  0  0
   40.8989  -47.1716    7.2607 C   0  0  0  0  0  0  0  0  0  0  0  0
   41.6456  -46.2345    7.7714 C   0  0  0  0  0  0  0  0  0  0  0  0
   42.9053  -45.6825    6.9502 C   0  0  0  0  0  0  0  0  0  0  0  0
   43.8293  -45.6081    7.5653 O   0  0  0  0  0  0  0  0  0  0  0  0
   42.3551  -45.4526    5.6460 N   0  0  0  0  0  0  0  0  0  0  0  0
   41.8969  -45.2330    4.4733 C   0  0  0  0  0  0  0  0  0  0  0  0
   40.4810  -45.5561    4.3600 C   0  0  0  0  0  0  0  0  0  0  0  0
   39.7946  -45.1857    3.2713 C   0  0  0  0  0  0  0  0  0  0  0  0
   40.4919  -44.4964    2.2539 C   0  0  0  0  0  0  0  0  0  0  0  0
   41.8198  -44.1732    2.2916 C   0  0  0  0  0  0  0  0  0  0  0  0
   42.3294  -43.2916    1.2013 C   0  0  0  0  0  0  0  0  0  0  0  0
   41.5488  -42.0348    1.3442 N   0  0  0  0  0  0  0  0  0  0  0  0
   42.2102  -40.8435    1.1632 C   0  0  0  0  0  0  0  0  0  0  0  0
   43.3205  -40.4472    0.9062 O   0  0  0  0  0  0  0  0  0  0  0  0
   41.2864  -39.6723    1.3672 N   0  0  0  0  0  0  0  0  0  0  0  0
   41.8507  -38.3602    1.5423 C   0  0  0  0  0  0  0  0  0  0  0  0
   40.7251  -37.4061    1.9491 C   0  0  0  0  0  0  0  0  0  0  0  0
   40.2154  -37.7979    3.3675 C   0  0  0  0  0  0  0  0  0  0  0  0
   41.3946  -36.0399    2.2226 C   0  0  0  0  0  0  0  0  0  0  0  0
   42.5047  -44.5414    3.3814 C   0  0  0  0  0  0  0  0  0  0  0  0
  1  2  1  0  0  0  0
  2  3  2  0  0  0  0
  3  4  1  0  0  0  0
  4  5  2  0  0  0  0
  5  6  1  0  0  0  0
  6  7  2  0  0  0  0
  7  8  1  0  0  0  0
  7  2  1  0  0  0  0
  8  9  2  0  0  0  0
  8 10  1  0  0  0  0
 10 11  1  0  0  0  0
 11 12  2  0  0  0  0
 12 13  1  0  0  0  0
 13 14  2  0  0  0  0
 14 15  1  0  0  0  0
 15 16  1  0  0  0  0
 15 25  2  0  0  0  0
 16 17  1  0  0  0  0
 17 18  1  0  0  0  0
 18 19  2  0  0  0  0
 18 20  1  0  0  0  0
 20 21  1  0  0  0  0
 21 22  1  0  0  0  0
 22 23  1  0  0  0  0
 22 24  1  0  0  0  0
 25 11  1  0  0  0  0
M  END
>  <CHROM.1>
58.16426296,-174.81298533,60.88597232,140.01595901,-171.07434488,67.15487094
41.47247004,-43.27724366,4.53591369,1.87171153,-1.44163597,2.72617198

>  <Name>
design_2

>  <RI>
0

>  <Rbt.Current_Directory>
/home/ziqiaoxu/icml18-jtnn/VAEdesign

>  <Rbt.Executable>
rbdock ($Id: //depot/dev/client3/rdock/2013.1/src/exe/rbdock.cxx#4 $)

>  <Rbt.Library>
libRbt.so (2013.1, Build901 2013/11/27)

>  <Rbt.Parameter_File>
/export/apps/rDock/src/rDock_2013.1_src//data/scripts/dock.prm

>  <Rbt.Receptor>
/home/ziqiaoxu/icml18-jtnn/VAEdesign/targets/RdRp-SARS-CoV-2/pocket_docking.prm

>  <SCORE>
-25.1244

>  <SCORE.INTER>
-21.7987

>  <SCORE.INTER.CONST>
1

>  <SCORE.INTER.POLAR>
-1.89126

>  <SCORE.INTER.REPUL>
0

>  <SCORE.INTER.ROT>
6

>  <SCORE.INTER.VDW>
-26.7684

>  <SCORE.INTER.norm>
-0.871949

>  <SCORE.INTRA>
-3.32565

>  <SCORE.INTRA.DIHEDRAL>
-12.7666

>  <SCORE.INTRA.DIHEDRAL.0>
24.7531

>  <SCORE.INTRA.POLAR>
0

>  <SCORE.INTRA.POLAR.0>
0

>  <SCORE.INTRA.REPUL>
0

>  <SCORE.INTRA.REPUL.0>
0

>  <SCORE.INTRA.VDW>
3.05767

>  <SCORE.INTRA.VDW.0>
-2.28674

>  <SCORE.INTRA.norm>
-0.133026

>  <SCORE.RESTR>
0

>  <SCORE.RESTR.CAVITY>
0

>  <SCORE.RESTR.norm>
0

>  <SCORE.SYSTEM>
0

>  <SCORE.SYSTEM.CONST>
0

>  <SCORE.SYSTEM.DIHEDRAL>
0

>  <SCORE.SYSTEM.norm>
0

>  <SCORE.heavy>
25

>  <SCORE.norm>
-1.00498

$$$$
design_11
 OpenBabel05252019093D

 25 27  0  0  0  0  0  0  0  0999 V2000
   47.9734  -47.4798    0.9610 C   0  0  0  0  0  0  0  0  0  0  0  0
   47.1249  -46.5577    1.6042 O   0  0  0  0  0  0  0  0  0  0  0  0
   45.8112  -46.3442    1.1782 C   0  0  0  0  0  0  0  0  0  0  0  0
   45.4594  -46.5495   -0.1328 C   0  0  0  0  0  0  0  0  0  0  0  0
   44.1771  -46.3454   -0.5682 C   0  0  0  0  0  0  0  0  0  0  0  0
   43.2582  -45.9284    0.3541 C   0  0  0  0  0  0  0  0  0  0  0  0
   43.6046  -45.7142    1.6997 C   0  0  0  0  0  0  0  0  0  0  0  0
   44.8788  -45.9149    2.1420 C   0  0  0  0  0  0  0  0  0  0  0  0
   45.3088  -45.7237    3.4699 N   0  0  0  0  0  0  0  0  0  0  0  0
   44.5169  -45.5220    4.6003 C   0  0  0  0  0  0  0  0  0  0  0  0
   43.2694  -45.4740    4.6400 O   0  0  0  0  0  0  0  0  0  0  0  0
   45.2298  -45.3420    5.9161 C   0  0  0  0  0  0  0  0  0  0  0  0
   44.4249  -44.4588    6.7932 C   0  0  0  0  0  0  0  0  0  0  0  0
   43.1888  -45.0423    7.1967 N   0  0  0  0  0  0  0  0  0  0  0  0
   42.7377  -44.9914    8.5338 C   0  0  0  0  0  0  0  0  0  0  0  0
   43.4264  -44.4219    9.3954 O   0  0  0  0  0  0  0  0  0  0  0  0
   41.4591  -45.6115    8.8950 C   0  0  0  0  0  0  0  0  0  0  0  0
   40.7614  -45.3946   10.0344 N   0  0  0  0  0  0  0  0  0  0  0  0
   39.6586  -46.1170   10.0273 N   0  0  0  0  0  0  0  0  0  0  0  0
   39.5615  -46.8451    8.8993 C   0  0  0  0  0  0  0  0  0  0  0  0
   38.6414  -47.7401    8.3976 C   0  0  0  0  0  0  0  0  0  0  0  0
   38.8863  -48.3041    7.1699 C   0  0  0  0  0  0  0  0  0  0  0  0
   40.0150  -47.9978    6.4422 C   0  0  0  0  0  0  0  0  0  0  0  0
   40.9291  -47.1028    6.9505 C   0  0  0  0  0  0  0  0  0  0  0  0
   40.7169  -46.5197    8.1743 C   0  0  0  0  0  0  0  0  0  0  0  0
  1  2  1  0  0  0  0
  2  3  1  0  0  0  0
  3  4  2  0  0  0  0
  4  5  1  0  0  0  0
  5  6  2  0  0  0  0
  6  7  1  0  0  0  0
  7  8  2  0  0  0  0
  8  9  1  0  0  0  0
  8  3  1  0  0  0  0
  9 10  1  0  0  0  0
 10 11  2  0  0  0  0
 10 12  1  0  0  0  0
 12 13  1  0  0  0  0
 13 14  1  0  0  0  0
 14 15  1  0  0  0  0
 15 16  2  0  0  0  0
 15 17  1  0  0  0  0
 17 18  2  0  0  0  0
 18 19  1  0  0  0  0
 19 20  1  0  0  0  0
 20 21  2  0  0  0  0
 21 22  1  0  0  0  0
 22 23  2  0  0  0  0
 23 24  1  0  0  0  0
 24 25  2  0  0  0  0
 25 17  1  0  0  0  0
 25 20  1  0  0  0  0
M  END
>  <CHROM.1>
-27.62222661,-168.49742682,149.43039769,66.72731963,134.49855187,-164.23053720
43.07543012,-46.11503043,5.31550129,-0.91963069,0.40703122,1.27450822

>  <Name>
design_11

>  <RI>
0

>  <Rbt.Current_Directory>
/home/ziqiaoxu/icml18-jtnn/VAEdesign

>  <Rbt.Executable>
rbdock ($Id: //depot/dev/client3/rdock/2013.1/src/exe/rbdock.cxx#4 $)

>  <Rbt.Library>
libRbt.so (2013.1, Build901 2013/11/27)

>  <Rbt.Parameter_File>
/export/apps/rDock/src/rDock_2013.1_src//data/scripts/dock.prm

>  <Rbt.Receptor>
/home/ziqiaoxu/icml18-jtnn/VAEdesign/targets/RdRp-SARS-CoV-2/pocket_docking.prm

>  <SCORE>
-19.0272

>  <SCORE.INTER>
-18.8126

>  <SCORE.INTER.CONST>
1

>  <SCORE.INTER.POLAR>
-1.0198

>  <SCORE.INTER.REPUL>
0.00457732

>  <SCORE.INTER.ROT>
6

>  <SCORE.INTER.VDW>
-26.7682

>  <SCORE.INTER.norm>
-0.752505

>  <SCORE.INTRA>
-0.214599

>  <SCORE.INTRA.DIHEDRAL>
3.4025

>  <SCORE.INTRA.DIHEDRAL.0>
2.29618

>  <SCORE.INTRA.POLAR>
-0.145696

>  <SCORE.INTRA.POLAR.0>
-0.0195182

>  <SCORE.INTRA.REPUL>
0

>  <SCORE.INTRA.REPUL.0>
0

>  <SCORE.INTRA.VDW>
-1.42048

>  <SCORE.INTRA.VDW.0>
3.02174

>  <SCORE.INTRA.norm>
-0.00858397

>  <SCORE.RESTR>
0

>  <SCORE.RESTR.CAVITY>
0

>  <SCORE.RESTR.norm>
0

>  <SCORE.SYSTEM>
0

>  <SCORE.SYSTEM.CONST>
0

>  <SCORE.SYSTEM.DIHEDRAL>
0

>  <SCORE.SYSTEM.norm>
0

>  <SCORE.heavy>
25

>  <SCORE.norm>
-0.761089

$$$$
design_11
 OpenBabel05252019093D

 22 24  0  0  0  0  0  0  0  0999 V2000
   41.2856  -44.5355   10.8131 C   0  0  0  0  0  0  0  0  0  0  0  0
   40.7890  -45.4313    9.7318 C   0  0  0  0  0  0  0  0  0  0  0  0
   41.5140  -45.6055    8.5723 C   0  0  0  0  0  0  0  0  0  0  0  0
   41.0584  -46.4394    7.5579 C   0  0  0  0  0  0  0  0  0  0  0  0
   39.8680  -47.1251    7.6663 C   0  0  0  0  0  0  0  0  0  0  0  0
   39.2981  -48.1750    6.3848 S   0  0  0  0  0  0  0  0  0  0  0  0
   39.1935  -49.5793    6.8678 O   0  0  0  0  0  0  0  0  0  0  0  0
   40.3115  -48.2019    5.2480 O   0  0  0  0  0  0  0  0  0  0  0  0
   37.7947  -47.6451    5.7559 N   0  0  0  0  0  0  0  0  0  0  0  0
   37.4477  -46.2783    5.8303 C   0  0  0  0  0  0  0  0  0  0  0  0
   36.1603  -45.8976    5.4536 C   0  0  0  0  0  0  0  0  0  0  0  0
   35.7398  -44.5903    5.4899 C   0  0  0  0  0  0  0  0  0  0  0  0
   36.6160  -43.6102    5.9132 C   0  0  0  0  0  0  0  0  0  0  0  0
   37.8935  -43.9527    6.2917 C   0  0  0  0  0  0  0  0  0  0  0  0
   38.2963  -45.2937    6.2450 C   0  0  0  0  0  0  0  0  0  0  0  0
   38.5221  -42.8520    6.6488 O   0  0  0  0  0  0  0  0  0  0  0  0
   37.6870  -41.8523    6.5058 C   0  0  0  0  0  0  0  0  0  0  0  0
   37.9444  -40.6513    6.7531 O   0  0  0  0  0  0  0  0  0  0  0  0
   36.4992  -42.2859    6.0526 N   0  0  0  0  0  0  0  0  0  0  0  0
   35.3148  -41.4667    5.7692 C   0  0  0  0  0  0  0  0  0  0  0  0
   39.1373  -46.9561    8.8225 C   0  0  0  0  0  0  0  0  0  0  0  0
   39.5979  -46.1172    9.8402 C   0  0  0  0  0  0  0  0  0  0  0  0
  1  2  1  0  0  0  0
  2  3  2  0  0  0  0
  3  4  1  0  0  0  0
  4  5  2  0  0  0  0
  5  6  1  0  0  0  0
  5 21  1  0  0  0  0
  6  7  2  0  0  0  0
  6  8  2  0  0  0  0
  6  9  1  0  0  0  0
  9 10  1  0  0  0  0
 10 11  2  0  0  0  0
 11 12  1  0  0  0  0
 12 13  2  0  0  0  0
 13 14  1  0  0  0  0
 14 15  2  0  0  0  0
 14 16  1  0  0  0  0
 15 10  1  0  0  0  0
 16 17  1  0  0  0  0
 17 18  2  0  0  0  0
 17 19  1  0  0  0  0
 19 20  1  0  0  0  0
 19 13  1  0  0  0  0
 21 22  2  0  0  0  0
 22  2  1  0  0  0  0
M  END
>  <CHROM.1>
117.79087881,26.71713113,-172.70484292,38.59282898,-45.37824599,6.95314171
-0.81871787,-0.75728431,0.32704479

>  <Name>
design_11

>  <RI>
0

>  <Rbt.Current_Directory>
/home/ziqiaoxu/icml18-jtnn/VAEdesign

>  <Rbt.Executable>
rbdock ($Id: //depot/dev/client3/rdock/2013.1/src/exe/rbdock.cxx#4 $)

>  <Rbt.Library>
libRbt.so (2013.1, Build901 2013/11/27)

>  <Rbt.Parameter_File>
/export/apps/rDock/src/rDock_2013.1_src//data/scripts/dock.prm

>  <Rbt.Receptor>
/home/ziqiaoxu/icml18-jtnn/VAEdesign/targets/RdRp-SARS-CoV-2/pocket_docking.prm

>  <SCORE>
-20.9977

>  <SCORE.INTER>
-18.3667

>  <SCORE.INTER.CONST>
1

>  <SCORE.INTER.POLAR>
0

>  <SCORE.INTER.REPUL>
0

>  <SCORE.INTER.ROT>
3

>  <SCORE.INTER.VDW>
-26.7667

>  <SCORE.INTER.norm>
-0.834849

>  <SCORE.INTRA>
-2.63102

>  <SCORE.INTRA.DIHEDRAL>
-6.58041

>  <SCORE.INTRA.DIHEDRAL.0>
9.19395

>  <SCORE.INTRA.POLAR>
0

>  <SCORE.INTRA.POLAR.0>
0

>  <SCORE.INTRA.REPUL>
0

>  <SCORE.INTRA.REPUL.0>
0

>  <SCORE.INTRA.VDW>
0.659181

>  <SCORE.INTRA.VDW.0>
-2.24579

>  <SCORE.INTRA.norm>
-0.119592

>  <SCORE.RESTR>
0

>  <SCORE.RESTR.CAVITY>
0

>  <SCORE.RESTR.norm>
0

>  <SCORE.SYSTEM>
0

>  <SCORE.SYSTEM.CONST>
0

>  <SCORE.SYSTEM.DIHEDRAL>
0

>  <SCORE.SYSTEM.norm>
0

>  <SCORE.heavy>
22

>  <SCORE.norm>
-0.954441

$$$$
design_9
 OpenBabel05252019093D

 26 29  0  0  0  0  0  0  0  0999 V2000
   46.0045  -43.0553    9.3673 C   0  0  0  0  0  0  0  0  0  0  0  0
   44.7432  -43.8361    9.1110 C   0  0  0  0  0  0  0  0  0  0  0  0
   43.7742  -44.1537    9.9917 N   0  0  0  0  0  0  0  0  0  0  0  0
   42.8268  -44.8496    9.3771 N   0  0  0  0  0  0  0  0  0  0  0  0
   43.1548  -44.9994    8.0926 C   0  0  0  0  0  0  0  0  0  0  0  0
   42.4005  -45.6901    7.0570 C   0  0  0  0  0  0  0  0  0  0  0  0
   42.6885  -45.5438    5.7142 C   0  0  0  0  0  0  0  0  0  0  0  0
   41.9598  -46.1996    4.7334 C   0  0  0  0  0  0  0  0  0  0  0  0
   40.9144  -47.0260    5.0792 C   0  0  0  0  0  0  0  0  0  0  0  0
   40.6097  -47.1857    6.4320 C   0  0  0  0  0  0  0  0  0  0  0  0
   39.4745  -48.0694    6.8230 C   0  0  0  0  0  0  0  0  0  0  0  0
   38.3000  -47.6123    6.1260 N   0  0  0  0  0  0  0  0  0  0  0  0
   37.5048  -46.5135    6.5497 C   0  0  0  0  0  0  0  0  0  0  0  0
   37.8660  -45.9283    7.5849 O   0  0  0  0  0  0  0  0  0  0  0  0
   36.3231  -46.1340    5.7592 C   0  0  0  0  0  0  0  0  0  0  0  0
   36.5242  -44.9188    4.9050 C   0  0  0  0  0  0  0  0  0  0  0  0
   36.5475  -43.6525    5.6419 C   0  0  0  0  0  0  0  0  0  0  0  0
   35.5021  -42.7850    5.7482 N   0  0  0  0  0  0  0  0  0  0  0  0
   35.8841  -41.7543    6.4846 C   0  0  0  0  0  0  0  0  0  0  0  0
   34.9926  -40.5874    6.8221 C   0  0  0  0  0  0  0  0  0  0  0  0
   34.7843  -40.3935    8.3312 C   0  0  0  0  0  0  0  0  0  0  0  0
   33.6873  -40.8981    7.4237 C   0  0  0  0  0  0  0  0  0  0  0  0
   37.1550  -41.9664    6.8404 N   0  0  0  0  0  0  0  0  0  0  0  0
   37.5154  -43.1182    6.3132 O   0  0  0  0  0  0  0  0  0  0  0  0
   41.3549  -46.5178    7.3939 C   0  0  0  0  0  0  0  0  0  0  0  0
   44.3472  -44.3657    7.9404 N   0  0  0  0  0  0  0  0  0  0  0  0
  1  2  1  0  0  0  0
  2  3  2  0  0  0  0
  3  4  1  0  0  0  0
  4  5  1  0  0  0  0
  5  6  1  0  0  0  0
  5 26  2  0  0  0  0
  6  7  2  0  0  0  0
  7  8  1  0  0  0  0
  8  9  2  0  0  0  0
  9 10  1  0  0  0  0
 10 11  1  0  0  0  0
 10 25  2  0  0  0  0
 11 12  1  0  0  0  0
 12 13  1  0  0  0  0
 13 14  2  0  0  0  0
 13 15  1  0  0  0  0
 15 16  1  0  0  0  0
 16 17  1  0  0  0  0
 17 18  2  0  0  0  0
 18 19  1  0  0  0  0
 19 20  1  0  0  0  0
 19 23  2  0  0  0  0
 20 21  1  0  0  0  0
 21 22  1  0  0  0  0
 22 20  1  0  0  0  0
 23 24  1  0  0  0  0
 24 17  1  0  0  0  0
 25  6  1  0  0  0  0
 26  2  1  0  0  0  0
M  END
>  <CHROM.1>
165.92909118,-54.99414558,-80.93233184,-103.26251154,-73.94989824,-99.96611298
120.30334364,39.45706480,-44.51692156,7.00771651,-0.19588104,-0.28616101
0.43600477

>  <Name>
design_9

>  <RI>
0

>  <Rbt.Current_Directory>
/home/ziqiaoxu/icml18-jtnn/VAEdesign

>  <Rbt.Executable>
rbdock ($Id: //depot/dev/client3/rdock/2013.1/src/exe/rbdock.cxx#4 $)

>  <Rbt.Library>
libRbt.so (2013.1, Build901 2013/11/27)

>  <Rbt.Parameter_File>
/export/apps/rDock/src/rDock_2013.1_src//data/scripts/dock.prm

>  <Rbt.Receptor>
/home/ziqiaoxu/icml18-jtnn/VAEdesign/targets/RdRp-SARS-CoV-2/pocket_docking.prm

>  <SCORE>
-16.9717

>  <SCORE.INTER>
-17.4141

>  <SCORE.INTER.CONST>
1

>  <SCORE.INTER.POLAR>
-0.938083

>  <SCORE.INTER.REPUL>
0.0247845

>  <SCORE.INTER.ROT>
7

>  <SCORE.INTER.VDW>
-26.7485

>  <SCORE.INTER.norm>
-0.669773

>  <SCORE.INTRA>
0.44238

>  <SCORE.INTRA.DIHEDRAL>
2.71568

>  <SCORE.INTRA.DIHEDRAL.0>
5.43843

>  <SCORE.INTRA.POLAR>
0

>  <SCORE.INTRA.POLAR.0>
0

>  <SCORE.INTRA.REPUL>
0

>  <SCORE.INTRA.REPUL.0>
0

>  <SCORE.INTRA.VDW>
-0.915458

>  <SCORE.INTRA.VDW.0>
-2.26479

>  <SCORE.INTRA.norm>
0.0170146

>  <SCORE.RESTR>
0

>  <SCORE.RESTR.CAVITY>
0

>  <SCORE.RESTR.norm>
0

>  <SCORE.SYSTEM>
0

>  <SCORE.SYSTEM.CONST>
0

>  <SCORE.SYSTEM.DIHEDRAL>
0

>  <SCORE.SYSTEM.norm>
0

>  <SCORE.heavy>
26

>  <SCORE.norm>
-0.652758

$$$$
design_0
 OpenBabel05252019093D

 25 27  0  0  0  0  0  0  0  0999 V2000
   40.4564  -45.6850   10.7809 N   0  0  0  0  0  0  0  0  0  0  0  0
   41.0362  -45.7249    9.4401 C   0  0  0  0  0  0  0  0  0  0  0  0
   41.9910  -44.9634    9.3357 O   0  0  0  0  0  0  0  0  0  0  0  0
   40.4405  -46.6098    8.4579 C   0  0  0  0  0  0  0  0  0  0  0  0
   39.3079  -47.3050    8.8152 C   0  0  0  0  0  0  0  0  0  0  0  0
   38.6358  -48.1244    7.9363 C   0  0  0  0  0  0  0  0  0  0  0  0
   39.1351  -48.2349    6.6659 C   0  0  0  0  0  0  0  0  0  0  0  0
   40.2709  -47.5477    6.2860 C   0  0  0  0  0  0  0  0  0  0  0  0
   40.9672  -46.7102    7.1667 C   0  0  0  0  0  0  0  0  0  0  0  0
   42.1627  -46.0721    6.8101 N   0  0  0  0  0  0  0  0  0  0  0  0
   42.6793  -46.0079    5.4963 C   0  0  0  0  0  0  0  0  0  0  0  0
   42.1443  -46.4896    4.4931 O   0  0  0  0  0  0  0  0  0  0  0  0
   43.9958  -45.2939    5.3070 C   0  0  0  0  0  0  0  0  0  0  0  0
   44.8711  -45.3267    6.3936 C   0  0  0  0  0  0  0  0  0  0  0  0
   46.0651  -44.6937    6.2773 C   0  0  0  0  0  0  0  0  0  0  0  0
   46.3871  -44.0358    5.0987 C   0  0  0  0  0  0  0  0  0  0  0  0
   45.5436  -43.9874    4.0146 C   0  0  0  0  0  0  0  0  0  0  0  0
   44.3187  -44.6453    4.1512 C   0  0  0  0  0  0  0  0  0  0  0  0
   43.3897  -44.6517    3.0268 C   0  0  0  0  0  0  0  0  0  0  0  0
   43.8671  -45.3459    1.8129 C   0  0  0  0  0  0  0  0  0  0  0  0
   43.0235  -45.5187    0.7430 C   0  0  0  0  0  0  0  0  0  0  0  0
   43.4655  -46.1695   -0.3852 C   0  0  0  0  0  0  0  0  0  0  0  0
   44.7421  -46.6665   -0.4925 C   0  0  0  0  0  0  0  0  0  0  0  0
   45.5596  -46.4688    0.6112 C   0  0  0  0  0  0  0  0  0  0  0  0
   45.1454  -45.8230    1.7498 C   0  0  0  0  0  0  0  0  0  0  0  0
  1  2  1  0  0  0  0
  2  3  2  0  0  0  0
  2  4  1  0  0  0  0
  4  5  2  0  0  0  0
  5  6  1  0  0  0  0
  6  7  2  0  0  0  0
  7  8  1  0  0  0  0
  8  9  2  0  0  0  0
  9 10  1  0  0  0  0
  9  4  1  0  0  0  0
 10 11  1  0  0  0  0
 11 12  2  0  0  0  0
 11 13  1  0  0  0  0
 13 14  2  0  0  0  0
 14 15  1  0  0  0  0
 15 16  2  0  0  0  0
 16 17  1  0  0  0  0
 17 18  2  0  0  0  0
 18 19  1  0  0  0  0
 18 13  1  0  0  0  0
 19 20  1  0  0  0  0
 20 21  2  0  0  0  0
 21 22  1  0  0  0  0
 22 23  2  0  0  0  0
 23 24  1  0  0  0  0
 24 25  2  0  0  0  0
 25 20  1  0  0  0  0
M  END
>  <CHROM.1>
3.96388311,-172.82334530,29.51636418,-115.31003421,173.88952858,42.75542916
-45.91727899,5.27311504,-2.19698814,-0.51772618,-1.77725000

>  <Name>
design_0

>  <RI>
0

>  <Rbt.Current_Directory>
/home/ziqiaoxu/icml18-jtnn/VAEdesign

>  <Rbt.Executable>
rbdock ($Id: //depot/dev/client3/rdock/2013.1/src/exe/rbdock.cxx#4 $)

>  <Rbt.Library>
libRbt.so (2013.1, Build901 2013/11/27)

>  <Rbt.Parameter_File>
/export/apps/rDock/src/rDock_2013.1_src//data/scripts/dock.prm

>  <Rbt.Receptor>
/home/ziqiaoxu/icml18-jtnn/VAEdesign/targets/RdRp-SARS-CoV-2/pocket_docking.prm

>  <SCORE>
-21.1254

>  <SCORE.INTER>
-19.8518

>  <SCORE.INTER.CONST>
1

>  <SCORE.INTER.POLAR>
-1.04973

>  <SCORE.INTER.REPUL>
0.0130671

>  <SCORE.INTER.ROT>
5

>  <SCORE.INTER.VDW>
-26.7481

>  <SCORE.INTER.norm>
-0.794073

>  <SCORE.INTRA>
-1.27357

>  <SCORE.INTRA.DIHEDRAL>
-7.28627

>  <SCORE.INTRA.DIHEDRAL.0>
12.3343

>  <SCORE.INTRA.POLAR>
0

>  <SCORE.INTRA.POLAR.0>
0

>  <SCORE.INTRA.REPUL>
0

>  <SCORE.INTRA.REPUL.0>
0

>  <SCORE.INTRA.VDW>
2.36956

>  <SCORE.INTRA.VDW.0>
-1.46997

>  <SCORE.INTRA.norm>
-0.0509429

>  <SCORE.RESTR>
0

>  <SCORE.RESTR.CAVITY>
0

>  <SCORE.RESTR.norm>
0

>  <SCORE.SYSTEM>
0

>  <SCORE.SYSTEM.CONST>
0

>  <SCORE.SYSTEM.DIHEDRAL>
0

>  <SCORE.SYSTEM.norm>
0

>  <SCORE.heavy>
25

>  <SCORE.norm>
-0.845016

$$$$
design_6
 OpenBabel05252019093D

 26 29  0  0  0  0  0  0  0  0999 V2000
   36.2888  -44.1428    5.7163 C   0  0  0  0  0  0  0  0  0  0  0  0
   36.9869  -45.3950    6.1067 C   0  0  0  0  0  0  0  0  0  0  0  0
   36.9628  -46.4644    5.2281 C   0  0  0  0  0  0  0  0  0  0  0  0
   37.5997  -47.6462    5.5563 C   0  0  0  0  0  0  0  0  0  0  0  0
   38.2763  -47.7806    6.7763 C   0  0  0  0  0  0  0  0  0  0  0  0
   38.9192  -49.0918    7.0554 C   0  0  0  0  0  0  0  0  0  0  0  0
   38.3049  -46.7239    7.6522 C   0  0  0  0  0  0  0  0  0  0  0  0
   39.0083  -46.8203    8.9166 C   0  0  0  0  0  0  0  0  0  0  0  0
   40.3316  -46.1272    8.9572 C   0  0  0  0  0  0  0  0  0  0  0  0
   40.5216  -45.4916   10.0099 O   0  0  0  0  0  0  0  0  0  0  0  0
   41.2399  -46.2070    7.9005 N   0  0  0  0  0  0  0  0  0  0  0  0
   42.5015  -45.5829    7.8516 C   0  0  0  0  0  0  0  0  0  0  0  0
   42.9450  -44.7972    8.9314 C   0  0  0  0  0  0  0  0  0  0  0  0
   44.1618  -44.1748    8.9663 C   0  0  0  0  0  0  0  0  0  0  0  0
   45.0473  -44.2888    7.9090 C   0  0  0  0  0  0  0  0  0  0  0  0
   46.2461  -43.6821    7.9340 N   0  0  0  0  0  0  0  0  0  0  0  0
   47.1087  -43.8123    6.8719 C   0  0  0  0  0  0  0  0  0  0  0  0
   46.7437  -44.5421    5.8250 N   0  0  0  0  0  0  0  0  0  0  0  0
   45.5214  -45.1695    5.7823 C   0  0  0  0  0  0  0  0  0  0  0  0
   45.1648  -45.8622    4.7983 O   0  0  0  0  0  0  0  0  0  0  0  0
   44.6552  -45.0461    6.8351 C   0  0  0  0  0  0  0  0  0  0  0  0
   43.4025  -45.6750    6.8222 C   0  0  0  0  0  0  0  0  0  0  0  0
   47.7458  -44.5976    4.7799 C   0  0  0  0  0  0  0  0  0  0  0  0
   48.8066  -43.6524    5.2521 C   0  0  0  0  0  0  0  0  0  0  0  0
   48.4603  -43.2586    6.6516 C   0  0  0  0  0  0  0  0  0  0  0  0
   37.6593  -45.5629    7.2916 C   0  0  0  0  0  0  0  0  0  0  0  0
  1  2  1  0  0  0  0
  2  3  2  0  0  0  0
  3  4  1  0  0  0  0
  4  5  2  0  0  0  0
  5  6  1  0  0  0  0
  5  7  1  0  0  0  0
  7  8  1  0  0  0  0
  7 26  2  0  0  0  0
  8  9  1  0  0  0  0
  9 10  2  0  0  0  0
  9 11  1  0  0  0  0
 11 12  1  0  0  0  0
 12 13  2  0  0  0  0
 13 14  1  0  0  0  0
 14 15  2  0  0  0  0
 15 16  1  0  0  0  0
 16 17  2  0  0  0  0
 17 18  1  0  0  0  0
 18 19  1  0  0  0  0
 18 23  1  0  0  0  0
 19 20  2  0  0  0  0
 19 21  1  0  0  0  0
 21 22  2  0  0  0  0
 21 15  1  0  0  0  0
 22 12  1  0  0  0  0
 23 24  1  0  0  0  0
 24 25  1  0  0  0  0
 25 17  1  0  0  0  0
 26  2  1  0  0  0  0
M  END
>  <CHROM.1>
103.03074311,137.18922766,0.06137368,42.35090503,-45.44930964,7.00392565
3.10936554,0.25379573,1.43317384

>  <Name>
design_6

>  <RI>
0

>  <Rbt.Current_Directory>
/home/ziqiaoxu/icml18-jtnn/VAEdesign

>  <Rbt.Executable>
rbdock ($Id: //depot/dev/client3/rdock/2013.1/src/exe/rbdock.cxx#4 $)

>  <Rbt.Library>
libRbt.so (2013.1, Build901 2013/11/27)

>  <Rbt.Parameter_File>
/export/apps/rDock/src/rDock_2013.1_src//data/scripts/dock.prm

>  <Rbt.Receptor>
/home/ziqiaoxu/icml18-jtnn/VAEdesign/targets/RdRp-SARS-CoV-2/pocket_docking.prm

>  <SCORE>
-19.321

>  <SCORE.INTER>
-18.3403

>  <SCORE.INTER.CONST>
1

>  <SCORE.INTER.POLAR>
0

>  <SCORE.INTER.REPUL>
0

>  <SCORE.INTER.ROT>
3

>  <SCORE.INTER.VDW>
-26.7403

>  <SCORE.INTER.norm>
-0.705396

>  <SCORE.INTRA>
-0.980742

>  <SCORE.INTRA.DIHEDRAL>
-0.934187

>  <SCORE.INTRA.DIHEDRAL.0>
3.00294

>  <SCORE.INTRA.POLAR>
0

>  <SCORE.INTRA.POLAR.0>
0

>  <SCORE.INTRA.REPUL>
0

>  <SCORE.INTRA.REPUL.0>
0

>  <SCORE.INTRA.VDW>
-0.513648

>  <SCORE.INTRA.VDW.0>
-0.637169

>  <SCORE.INTRA.norm>
-0.0377208

>  <SCORE.RESTR>
0

>  <SCORE.RESTR.CAVITY>
0

>  <SCORE.RESTR.norm>
0

>  <SCORE.SYSTEM>
0

>  <SCORE.SYSTEM.CONST>
0

>  <SCORE.SYSTEM.DIHEDRAL>
0

>  <SCORE.SYSTEM.norm>
0

>  <SCORE.heavy>
26

>  <SCORE.norm>
-0.743117

$$$$
design_10
 OpenBabel05252019093D

 26 29  0  0  0  0  0  0  0  0999 V2000
   39.4178  -47.6122    7.0709 C   0  0  0  0  0  0  0  0  0  0  0  0
   39.9679  -46.7671    8.2087 C   0  0  0  0  0  0  0  0  0  0  0  0
   39.2136  -46.5771    9.3388 C   0  0  0  0  0  0  0  0  0  0  0  0
   40.2576  -45.5893   10.2745 S   0  0  0  0  0  0  0  0  0  0  0  0
   41.5643  -45.4857    9.1822 C   0  0  0  0  0  0  0  0  0  0  0  0
   42.8338  -44.7817    9.3343 C   0  0  0  0  0  0  0  0  0  0  0  0
   43.1897  -44.2789   10.5416 C   0  0  0  0  0  0  0  0  0  0  0  0
   44.3987  -43.5955   10.7199 C   0  0  0  0  0  0  0  0  0  0  0  0
   45.2396  -43.4331    9.6466 C   0  0  0  0  0  0  0  0  0  0  0  0
   44.8882  -43.9394    8.4175 C   0  0  0  0  0  0  0  0  0  0  0  0
   45.8022  -43.7533    7.2498 C   0  0  0  0  0  0  0  0  0  0  0  0
   45.7860  -44.8550    6.3351 N   0  0  0  0  0  0  0  0  0  0  0  0
   45.7868  -44.6600    4.9335 C   0  0  0  0  0  0  0  0  0  0  0  0
   45.8021  -43.4852    4.4937 O   0  0  0  0  0  0  0  0  0  0  0  0
   45.7698  -45.8293    3.9858 C   0  0  2  0  0  0  0  0  0  0  0  0
   47.0926  -45.9862    3.2943 C   0  0  0  0  0  0  0  0  0  0  0  0
   46.9822  -46.5703    2.0240 O   0  0  0  0  0  0  0  0  0  0  0  0
   45.8751  -46.4549    1.2108 C   0  0  0  0  0  0  0  0  0  0  0  0
   45.8937  -46.7573   -0.1381 C   0  0  0  0  0  0  0  0  0  0  0  0
   44.7617  -46.6214   -0.8877 C   0  0  0  0  0  0  0  0  0  0  0  0
   43.5585  -46.1818   -0.3459 C   0  0  0  0  0  0  0  0  0  0  0  0
   43.5379  -45.8818    0.9897 C   0  0  0  0  0  0  0  0  0  0  0  0
   44.6861  -46.0158    1.7678 C   0  0  0  0  0  0  0  0  0  0  0  0
   44.6792  -45.7174    3.1134 O   0  0  0  0  0  0  0  0  0  0  0  0
   43.6924  -44.6061    8.2756 C   0  0  0  0  0  0  0  0  0  0  0  0
   41.1345  -46.2094    8.1631 N   0  0  0  0  0  0  0  0  0  0  0  0
  1  2  1  0  0  0  0
  2  3  2  0  0  0  0
  3  4  1  0  0  0  0
  4  5  1  0  0  0  0
  5  6  1  0  0  0  0
  5 26  2  0  0  0  0
  6  7  2  0  0  0  0
  7  8  1  0  0  0  0
  8  9  2  0  0  0  0
  9 10  1  0  0  0  0
 10 11  1  0  0  0  0
 10 25  2  0  0  0  0
 11 12  1  0  0  0  0
 12 13  1  0  0  0  0
 13 14  2  0  0  0  0
 15 13  1  6  0  0  0
 15 16  1  0  0  0  0
 16 17  1  0  0  0  0
 17 18  1  0  0  0  0
 18 19  2  0  0  0  0
 19 20  1  0  0  0  0
 20 21  2  0  0  0  0
 21 22  1  0  0  0  0
 22 23  2  0  0  0  0
 23 24  1  0  0  0  0
 23 18  1  0  0  0  0
 24 15  1  0  0  0  0
 25  6  1  0  0  0  0
 26  2  1  0  0  0  0
M  END
>  <CHROM.1>
11.00365715,145.96112775,138.29016054,-108.68775562,43.76907021,-45.46091815
5.84901601,2.03904427,0.40405150,1.27800975

>  <Name>
design_10

>  <RI>
0

>  <Rbt.Current_Directory>
/home/ziqiaoxu/icml18-jtnn/VAEdesign

>  <Rbt.Executable>
rbdock ($Id: //depot/dev/client3/rdock/2013.1/src/exe/rbdock.cxx#4 $)

>  <Rbt.Library>
libRbt.so (2013.1, Build901 2013/11/27)

>  <Rbt.Parameter_File>
/export/apps/rDock/src/rDock_2013.1_src//data/scripts/dock.prm

>  <Rbt.Receptor>
/home/ziqiaoxu/icml18-jtnn/VAEdesign/targets/RdRp-SARS-CoV-2/pocket_docking.prm

>  <SCORE>
-19.0465

>  <SCORE.INTER>
-20.352

>  <SCORE.INTER.CONST>
1

>  <SCORE.INTER.POLAR>
-0.886289

>  <SCORE.INTER.REPUL>
0

>  <SCORE.INTER.ROT>
4

>  <SCORE.INTER.VDW>
-26.7386

>  <SCORE.INTER.norm>
-0.782768

>  <SCORE.INTRA>
1.30544

>  <SCORE.INTRA.DIHEDRAL>
1.94992

>  <SCORE.INTRA.DIHEDRAL.0>
2.75849

>  <SCORE.INTRA.POLAR>
0

>  <SCORE.INTRA.POLAR.0>
0

>  <SCORE.INTRA.REPUL>
0

>  <SCORE.INTRA.REPUL.0>
0

>  <SCORE.INTRA.VDW>
0.330485

>  <SCORE.INTRA.VDW.0>
-1.96279

>  <SCORE.INTRA.norm>
0.0502094

>  <SCORE.RESTR>
0

>  <SCORE.RESTR.CAVITY>
0

>  <SCORE.RESTR.norm>
0

>  <SCORE.SYSTEM>
0

>  <SCORE.SYSTEM.CONST>
0

>  <SCORE.SYSTEM.DIHEDRAL>
0

>  <SCORE.SYSTEM.norm>
0

>  <SCORE.heavy>
26

>  <SCORE.norm>
-0.732558

$$$$
design_1
 OpenBabel05252019093D

 26 29  0  0  0  0  0  0  0  0999 V2000
   43.5174  -45.2046    3.2907 C   0  0  0  0  0  0  0  0  0  0  0  0
   42.0124  -45.2181    3.3041 C   0  0  0  0  0  0  0  0  0  0  0  0
   41.1695  -44.9148    2.2970 N   0  0  0  0  0  0  0  0  0  0  0  0
   39.9230  -45.0482    2.7344 N   0  0  0  0  0  0  0  0  0  0  0  0
   39.9130  -45.4373    4.0245 C   0  0  0  0  0  0  0  0  0  0  0  0
   38.7743  -45.6787    4.8944 C   0  0  0  0  0  0  0  0  0  0  0  0
   37.4758  -45.4670    4.5237 C   0  0  0  0  0  0  0  0  0  0  0  0
   36.4086  -45.6826    5.3677 C   0  0  0  0  0  0  0  0  0  0  0  0
   36.6401  -46.1286    6.6408 C   0  0  0  0  0  0  0  0  0  0  0  0
   37.9466  -46.3520    7.0429 C   0  0  0  0  0  0  0  0  0  0  0  0
   38.1665  -46.8078    8.4630 C   0  0  0  0  0  0  0  0  0  0  0  0
   39.2373  -46.2841    9.0302 N   0  0  0  0  0  0  0  0  0  0  0  0
   40.3906  -45.7186    9.6448 C   0  0  0  0  0  0  0  0  0  0  0  0
   40.4651  -45.2763   10.7845 O   0  0  0  0  0  0  0  0  0  0  0  0
   41.6213  -45.6474    8.8161 C   0  0  0  0  0  0  0  0  0  0  0  0
   41.7008  -46.2470    7.6087 C   0  0  0  0  0  0  0  0  0  0  0  0
   42.8122  -46.0600    6.7983 C   0  0  0  0  0  0  0  0  0  0  0  0
   43.8511  -45.2399    7.2497 C   0  0  0  0  0  0  0  0  0  0  0  0
   44.9586  -44.9959    6.4702 C   0  0  0  0  0  0  0  0  0  0  0  0
   45.9670  -44.1646    6.9045 C   0  0  0  0  0  0  0  0  0  0  0  0
   45.8285  -43.5739    8.1637 C   0  0  0  0  0  0  0  0  0  0  0  0
   44.7145  -43.8244    8.9349 C   0  0  0  0  0  0  0  0  0  0  0  0
   43.7014  -44.6587    8.4984 C   0  0  0  0  0  0  0  0  0  0  0  0
   42.6130  -44.8547    9.2727 N   0  0  0  0  0  0  0  0  0  0  0  0
   39.0007  -46.1303    6.1802 C   0  0  0  0  0  0  0  0  0  0  0  0
   41.2319  -45.5336    4.3503 N   0  0  0  0  0  0  0  0  0  0  0  0
  1  2  1  0  0  0  0
  2  3  2  0  0  0  0
  3  4  1  0  0  0  0
  4  5  1  0  0  0  0
  5  6  1  0  0  0  0
  5 26  2  0  0  0  0
  6  7  2  0  0  0  0
  7  8  1  0  0  0  0
  8  9  2  0  0  0  0
  9 10  1  0  0  0  0
 10 11  1  0  0  0  0
 10 25  2  0  0  0  0
 11 12  1  0  0  0  0
 12 13  1  0  0  0  0
 13 14  2  0  0  0  0
 13 15  1  0  0  0  0
 15 16  2  0  0  0  0
 16 17  1  0  0  0  0
 17 18  2  0  0  0  0
 18 19  1  0  0  0  0
 19 20  2  0  0  0  0
 20 21  1  0  0  0  0
 21 22  2  0  0  0  0
 22 23  1  0  0  0  0
 23 24  2  0  0  0  0
 23 18  1  0  0  0  0
 24 15  1  0  0  0  0
 25  6  1  0  0  0  0
 26  2  1  0  0  0  0
M  END
>  <CHROM.1>
-3.65722938,-142.01429575,135.96729093,-8.64772096,41.13901203,-45.38936240
6.59077312,-0.35617242,-0.21621142,-1.52343730

>  <Name>
design_1

>  <RI>
0

>  <Rbt.Current_Directory>
/home/ziqiaoxu/icml18-jtnn/VAEdesign

>  <Rbt.Executable>
rbdock ($Id: //depot/dev/client3/rdock/2013.1/src/exe/rbdock.cxx#4 $)

>  <Rbt.Library>
libRbt.so (2013.1, Build901 2013/11/27)

>  <Rbt.Parameter_File>
/export/apps/rDock/src/rDock_2013.1_src//data/scripts/dock.prm

>  <Rbt.Receptor>
/home/ziqiaoxu/icml18-jtnn/VAEdesign/targets/RdRp-SARS-CoV-2/pocket_docking.prm

>  <SCORE>
-21.8515

>  <SCORE.INTER>
-20.8053

>  <SCORE.INTER.CONST>
1

>  <SCORE.INTER.POLAR>
-1.0198

>  <SCORE.INTER.REPUL>
0

>  <SCORE.INTER.ROT>
4

>  <SCORE.INTER.VDW>
-26.738

>  <SCORE.INTER.norm>
-0.800204

>  <SCORE.INTRA>
-1.04623

>  <SCORE.INTRA.DIHEDRAL>
0.733231

>  <SCORE.INTRA.DIHEDRAL.0>
2.58995

>  <SCORE.INTRA.POLAR>
0

>  <SCORE.INTRA.POLAR.0>
0

>  <SCORE.INTRA.REPUL>
0

>  <SCORE.INTRA.REPUL.0>
0

>  <SCORE.INTRA.VDW>
-1.41284

>  <SCORE.INTRA.VDW.0>
-1.19899

>  <SCORE.INTRA.norm>
-0.0402396

>  <SCORE.RESTR>
0

>  <SCORE.RESTR.CAVITY>
0

>  <SCORE.RESTR.norm>
0

>  <SCORE.SYSTEM>
0

>  <SCORE.SYSTEM.CONST>
0

>  <SCORE.SYSTEM.DIHEDRAL>
0

>  <SCORE.SYSTEM.norm>
0

>  <SCORE.heavy>
26

>  <SCORE.norm>
-0.840444

$$$$
design_15
 OpenBabel05252019093D

 25 26  0  0  0  0  0  0  0  0999 V2000
   36.1417  -44.3333    5.5805 C   0  0  0  0  0  0  0  0  0  0  0  0
   36.4681  -45.4529    5.2813 C   0  0  0  0  0  0  0  0  0  0  0  0
   36.8405  -46.8535    4.8990 C   0  0  0  0  0  0  0  0  0  0  0  0
   37.7044  -47.4447    5.7834 N   0  0  0  0  0  0  0  0  0  0  0  0
   38.5538  -48.0261    6.6529 C   0  0  0  0  0  0  0  0  0  0  0  0
   38.7151  -49.2784    6.7867 O   0  0  0  0  0  0  0  0  0  0  0  0
   39.3670  -47.1228    7.5274 C   0  0  0  0  0  0  0  0  0  0  0  0
   39.0283  -47.0637    8.8646 C   0  0  0  0  0  0  0  0  0  0  0  0
   39.8661  -46.3702    9.7012 C   0  0  0  0  0  0  0  0  0  0  0  0
   40.9849  -45.7628    9.2543 C   0  0  0  0  0  0  0  0  0  0  0  0
   41.3179  -45.8297    7.8836 C   0  0  0  0  0  0  0  0  0  0  0  0
   40.4863  -46.5185    7.0229 C   0  0  0  0  0  0  0  0  0  0  0  0
   40.7005  -46.4048    5.6490 N   0  0  0  0  0  0  0  0  0  0  0  0
   41.4695  -45.4067    5.0019 C   0  0  0  0  0  0  0  0  0  0  0  0
   42.1159  -44.5286    5.5967 O   0  0  0  0  0  0  0  0  0  0  0  0
   41.5152  -45.3901    3.5842 N   0  0  0  0  0  0  0  0  0  0  0  0
   42.2556  -44.4538    2.8400 C   0  0  0  0  0  0  0  0  0  0  0  0
   41.3697  -43.5538    1.9995 C   0  0  0  0  0  0  0  0  0  0  0  0
   42.1866  -42.4321    1.4514 C   0  0  0  0  0  0  0  0  0  0  0  0
   42.0694  -41.1550    1.9142 C   0  0  0  0  0  0  0  0  0  0  0  0
   42.8037  -40.1283    1.3076 C   0  0  0  0  0  0  0  0  0  0  0  0
   43.6323  -40.4335    0.2529 C   0  0  0  0  0  0  0  0  0  0  0  0
   44.4238  -39.3552   -0.4141 C   0  0  0  0  0  0  0  0  0  0  0  0
   43.7546  -41.7202   -0.2159 C   0  0  0  0  0  0  0  0  0  0  0  0
   43.0120  -42.7199    0.4073 C   0  0  0  0  0  0  0  0  0  0  0  0
  1  2  3  0  0  0  0
  2  3  1  0  0  0  0
  3  4  1  0  0  0  0
  4  5  1  0  0  0  0
  5  6  2  0  0  0  0
  5  7  1  0  0  0  0
  7  8  2  0  0  0  0
  8  9  1  0  0  0  0
  9 10  2  0  0  0  0
 10 11  1  0  0  0  0
 11 12  2  0  0  0  0
 12 13  1  0  0  0  0
 12  7  1  0  0  0  0
 13 14  1  0  0  0  0
 14 15  2  0  0  0  0
 14 16  1  0  0  0  0
 16 17  1  0  0  0  0
 17 18  1  0  0  0  0
 18 19  1  0  0  0  0
 19 20  2  0  0  0  0
 20 21  1  0  0  0  0
 21 22  2  0  0  0  0
 22 23  1  0  0  0  0
 22 24  1  0  0  0  0
 24 25  2  0  0  0  0
 25 19  1  0  0  0  0
M  END
>  <CHROM.1>
-139.37726325,27.05776706,107.81554644,153.31810684,-115.46757065,169.17591102
-107.64824290,40.67530085,-44.74963134,4.57037600,2.06774477,0.38935576,2.08875032

>  <Name>
design_15

>  <RI>
0

>  <Rbt.Current_Directory>
/home/ziqiaoxu/icml18-jtnn/VAEdesign

>  <Rbt.Executable>
rbdock ($Id: //depot/dev/client3/rdock/2013.1/src/exe/rbdock.cxx#4 $)

>  <Rbt.Library>
libRbt.so (2013.1, Build901 2013/11/27)

>  <Rbt.Parameter_File>
/export/apps/rDock/src/rDock_2013.1_src//data/scripts/dock.prm

>  <Rbt.Receptor>
/home/ziqiaoxu/icml18-jtnn/VAEdesign/targets/RdRp-SARS-CoV-2/pocket_docking.prm

>  <SCORE>
-13.8673

>  <SCORE.INTER>
-18.0381

>  <SCORE.INTER.CONST>
1

>  <SCORE.INTER.POLAR>
-1.08972

>  <SCORE.INTER.REPUL>
0

>  <SCORE.INTER.ROT>
7

>  <SCORE.INTER.VDW>
-26.733

>  <SCORE.INTER.norm>
-0.721524

>  <SCORE.INTRA>
4.17079

>  <SCORE.INTRA.DIHEDRAL>
11.2498

>  <SCORE.INTRA.DIHEDRAL.0>
5.73685

>  <SCORE.INTRA.POLAR>
0

>  <SCORE.INTRA.POLAR.0>
0

>  <SCORE.INTRA.REPUL>
0

>  <SCORE.INTRA.REPUL.0>
0

>  <SCORE.INTRA.VDW>
-1.45411

>  <SCORE.INTRA.VDW.0>
-0.419694

>  <SCORE.INTRA.norm>
0.166831

>  <SCORE.RESTR>
0

>  <SCORE.RESTR.CAVITY>
0

>  <SCORE.RESTR.norm>
0

>  <SCORE.SYSTEM>
0

>  <SCORE.SYSTEM.CONST>
0

>  <SCORE.SYSTEM.DIHEDRAL>
0

>  <SCORE.SYSTEM.norm>
0

>  <SCORE.heavy>
25

>  <SCORE.norm>
-0.554693

$$$$
design_14
 OpenBabel05252019093D

 24 25  0  0  0  0  0  0  0  0999 V2000
   39.0759  -48.0628    6.3462 C   0  0  0  0  0  0  0  0  0  0  0  0
   38.6850  -46.9634    7.2371 N   0  0  0  0  0  0  0  0  0  0  0  0
   39.0818  -46.8822    8.6155 C   0  0  0  0  0  0  0  0  0  0  0  0
   39.9630  -45.7585    8.9536 C   0  0  0  0  0  0  0  0  0  0  0  0
   41.0377  -45.6670    8.2956 O   0  0  0  0  0  0  0  0  0  0  0  0
   39.6399  -44.8312    9.9525 N   0  0  0  0  0  0  0  0  0  0  0  0
   40.5316  -43.7203   10.3221 C   0  0  0  0  0  0  0  0  0  0  0  0
   39.7194  -42.4638   10.3671 C   0  0  0  0  0  0  0  0  0  0  0  0
   39.5877  -41.7580    9.1250 N   0  0  0  0  0  0  0  0  0  0  0  0
   40.0622  -40.4394    8.9887 C   0  0  0  0  0  0  0  0  0  0  0  0
   40.6061  -39.8710    9.9553 O   0  0  0  0  0  0  0  0  0  0  0  0
   39.9239  -39.7125    7.7063 C   0  0  0  0  0  0  0  0  0  0  0  0
   39.5388  -40.3019    6.5313 C   0  0  0  0  0  0  0  0  0  0  0  0
   39.4374  -39.5599    5.3472 C   0  0  0  0  0  0  0  0  0  0  0  0
   39.7250  -38.2188    5.3495 C   0  0  0  0  0  0  0  0  0  0  0  0
   39.6138  -37.2476    3.8812 Cl  0  0  0  0  0  0  0  0  0  0  0  0
   40.1094  -37.6197    6.5166 C   0  0  0  0  0  0  0  0  0  0  0  0
   40.2095  -38.3641    7.6923 C   0  0  0  0  0  0  0  0  0  0  0  0
   37.8719  -45.9135    6.6980 C   0  0  0  0  0  0  0  0  0  0  0  0
   36.6980  -46.2107    6.0079 C   0  0  0  0  0  0  0  0  0  0  0  0
   35.9362  -45.2060    5.4848 C   0  0  0  0  0  0  0  0  0  0  0  0
   36.2878  -43.8581    5.6111 C   0  0  0  0  0  0  0  0  0  0  0  0
   37.4499  -43.5761    6.2938 C   0  0  0  0  0  0  0  0  0  0  0  0
   38.2184  -44.5904    6.8228 C   0  0  0  0  0  0  0  0  0  0  0  0
  1  2  1  0  0  0  0
  2  3  1  0  0  0  0
  2 19  1  0  0  0  0
  3  4  1  0  0  0  0
  4  5  2  0  0  0  0
  4  6  1  0  0  0  0
  6  7  1  0  0  0  0
  7  8  1  0  0  0  0
  8  9  1  0  0  0  0
  9 10  1  0  0  0  0
 10 11  2  0  0  0  0
 10 12  1  0  0  0  0
 12 13  2  0  0  0  0
 13 14  1  0  0  0  0
 14 15  2  0  0  0  0
 15 16  1  0  0  0  0
 15 17  1  0  0  0  0
 17 18  2  0  0  0  0
 18 12  1  0  0  0  0
 19 20  2  0  0  0  0
 20 21  1  0  0  0  0
 21 22  2  0  0  0  0
 22 23  1  0  0  0  0
 23 24  2  0  0  0  0
 24 19  1  0  0  0  0
M  END
>  <CHROM.1>
114.82730737,-55.92403270,131.85789737,-87.44159739,-119.15877380,-10.65338671
51.27275247,39.18660928,-42.49898571,7.25634455,1.85271515,1.04123835,2.67922964

>  <Name>
design_14

>  <RI>
0

>  <Rbt.Current_Directory>
/home/ziqiaoxu/icml18-jtnn/VAEdesign

>  <Rbt.Executable>
rbdock ($Id: //depot/dev/client3/rdock/2013.1/src/exe/rbdock.cxx#4 $)

>  <Rbt.Library>
libRbt.so (2013.1, Build901 2013/11/27)

>  <Rbt.Parameter_File>
/export/apps/rDock/src/rDock_2013.1_src//data/scripts/dock.prm

>  <Rbt.Receptor>
/home/ziqiaoxu/icml18-jtnn/VAEdesign/targets/RdRp-SARS-CoV-2/pocket_docking.prm

>  <SCORE>
-20.0543

>  <SCORE.INTER>
-18.8223

>  <SCORE.INTER.CONST>
1

>  <SCORE.INTER.POLAR>
-1.32555

>  <SCORE.INTER.REPUL>
0

>  <SCORE.INTER.ROT>
7

>  <SCORE.INTER.VDW>
-26.7155

>  <SCORE.INTER.norm>
-0.784264

>  <SCORE.INTRA>
-1.23191

>  <SCORE.INTRA.DIHEDRAL>
-0.219475

>  <SCORE.INTRA.DIHEDRAL.0>
17.022

>  <SCORE.INTRA.POLAR>
0

>  <SCORE.INTRA.POLAR.0>
0

>  <SCORE.INTRA.REPUL>
0

>  <SCORE.INTRA.REPUL.0>
0

>  <SCORE.INTRA.VDW>
-1.12218

>  <SCORE.INTRA.VDW.0>
-0.617212

>  <SCORE.INTRA.norm>
-0.0513298

>  <SCORE.RESTR>
0

>  <SCORE.RESTR.CAVITY>
0

>  <SCORE.RESTR.norm>
0

>  <SCORE.SYSTEM>
0

>  <SCORE.SYSTEM.CONST>
0

>  <SCORE.SYSTEM.DIHEDRAL>
0

>  <SCORE.SYSTEM.norm>
0

>  <SCORE.heavy>
24

>  <SCORE.norm>
-0.835594

$$$$
design_3
 OpenBabel05252019093D

 25 27  0  0  0  0  0  0  0  0999 V2000
   39.4770  -36.1454    1.9420 C   0  0  0  0  0  0  0  0  0  0  0  0
   39.6002  -37.2005    3.0077 C   0  0  0  0  0  0  0  0  0  0  0  0
   39.7964  -38.3789    2.6735 O   0  0  0  0  0  0  0  0  0  0  0  0
   39.4889  -36.8181    4.3548 N   0  0  0  0  0  0  0  0  0  0  0  0
   39.5673  -37.6492    5.4706 C   0  0  0  0  0  0  0  0  0  0  0  0
   40.2929  -37.2357    6.5937 C   0  0  0  0  0  0  0  0  0  0  0  0
   40.3837  -38.0005    7.7210 C   0  0  0  0  0  0  0  0  0  0  0  0
   39.7401  -39.2253    7.7617 C   0  0  0  0  0  0  0  0  0  0  0  0
   39.8724  -40.0018    8.9822 C   0  0  0  0  0  0  0  0  0  0  0  0
   40.6712  -39.6259    9.8668 O   0  0  0  0  0  0  0  0  0  0  0  0
   39.1106  -41.1623    9.1669 N   0  0  0  0  0  0  0  0  0  0  0  0
   39.2707  -41.9140   10.4009 C   0  0  0  0  0  0  0  0  0  0  0  0
   39.7717  -43.3011   10.0714 C   0  0  0  0  0  0  0  0  0  0  0  0
   39.2876  -44.1341    9.1795 N   0  0  0  0  0  0  0  0  0  0  0  0
   39.8414  -45.3065    9.0155 C   0  0  0  0  0  0  0  0  0  0  0  0
   39.3234  -46.2750    8.0181 C   0  0  0  0  0  0  0  0  0  0  0  0
   39.9136  -47.5050    7.8076 C   0  0  0  0  0  0  0  0  0  0  0  0
   39.4233  -48.3956    6.8786 C   0  0  0  0  0  0  0  0  0  0  0  0
   38.3205  -48.0740    6.1311 C   0  0  0  0  0  0  0  0  0  0  0  0
   37.7099  -46.8595    6.3153 C   0  0  0  0  0  0  0  0  0  0  0  0
   38.2225  -45.9866    7.2530 C   0  0  0  0  0  0  0  0  0  0  0  0
   40.9231  -45.6005    9.8074 C   0  0  0  0  0  0  0  0  0  0  0  0
   41.0744  -44.1761   10.7347 S   0  0  0  0  0  0  0  0  0  0  0  0
   39.0111  -39.6859    6.6883 C   0  0  0  0  0  0  0  0  0  0  0  0
   38.9513  -38.8576    5.5548 C   0  0  0  0  0  0  0  0  0  0  0  0
  1  2  1  0  0  0  0
  2  3  2  0  0  0  0
  2  4  1  0  0  0  0
  4  5  1  0  0  0  0
  5  6  2  0  0  0  0
  6  7  1  0  0  0  0
  7  8  2  0  0  0  0
  8  9  1  0  0  0  0
  8 24  1  0  0  0  0
  9 10  2  0  0  0  0
  9 11  1  0  0  0  0
 11 12  1  0  0  0  0
 12 13  1  0  0  0  0
 13 14  2  0  0  0  0
 14 15  1  0  0  0  0
 15 16  1  0  0  0  0
 15 22  2  0  0  0  0
 16 17  2  0  0  0  0
 17 18  1  0  0  0  0
 18 19  2  0  0  0  0
 19 20  1  0  0  0  0
 20 21  2  0  0  0  0
 21 16  1  0  0  0  0
 22 23  1  0  0  0  0
 23 13  1  0  0  0  0
 24 25  2  0  0  0  0
 25  5  1  0  0  0  0
M  END
>  <CHROM.1>
137.40087729,-8.45658428,-118.44400779,-49.48372746,178.41506923,39.64539631
-41.92540407,7.40018381,1.52299445,-1.31657435,-0.45900321

>  <Name>
design_3

>  <RI>
0

>  <Rbt.Current_Directory>
/home/ziqiaoxu/icml18-jtnn/VAEdesign

>  <Rbt.Executable>
rbdock ($Id: //depot/dev/client3/rdock/2013.1/src/exe/rbdock.cxx#4 $)

>  <Rbt.Library>
libRbt.so (2013.1, Build901 2013/11/27)

>  <Rbt.Parameter_File>
/export/apps/rDock/src/rDock_2013.1_src//data/scripts/dock.prm

>  <Rbt.Receptor>
/home/ziqiaoxu/icml18-jtnn/VAEdesign/targets/RdRp-SARS-CoV-2/pocket_docking.prm

>  <SCORE>
-19.2694

>  <SCORE.INTER>
-21.2015

>  <SCORE.INTER.CONST>
1

>  <SCORE.INTER.POLAR>
-1.43737

>  <SCORE.INTER.REPUL>
0

>  <SCORE.INTER.ROT>
5

>  <SCORE.INTER.VDW>
-26.7144

>  <SCORE.INTER.norm>
-0.848059

>  <SCORE.INTRA>
1.56549

>  <SCORE.INTRA.DIHEDRAL>
4.30515

>  <SCORE.INTRA.DIHEDRAL.0>
4.5607

>  <SCORE.INTRA.POLAR>
0

>  <SCORE.INTRA.POLAR.0>
0

>  <SCORE.INTRA.REPUL>
0

>  <SCORE.INTRA.REPUL.0>
0

>  <SCORE.INTRA.VDW>
-0.587084

>  <SCORE.INTRA.VDW.0>
-0.409671

>  <SCORE.INTRA.norm>
0.0626196

>  <SCORE.RESTR>
0.366571

>  <SCORE.RESTR.CAVITY>
0.366571

>  <SCORE.RESTR.norm>
0.0146628

>  <SCORE.SYSTEM>
0

>  <SCORE.SYSTEM.CONST>
0

>  <SCORE.SYSTEM.DIHEDRAL>
0

>  <SCORE.SYSTEM.norm>
0

>  <SCORE.heavy>
25

>  <SCORE.norm>
-0.770776

$$$$
design_15
 OpenBabel05252019093D

 24 27  0  0  0  0  0  0  0  0999 V2000
   39.0674  -48.6963    6.7054 C   0  0  0  0  0  0  0  0  0  0  0  0
   39.6931  -47.6790    7.5900 C   0  0  0  0  0  0  0  0  0  0  0  0
   39.0805  -47.2361    8.7444 C   0  0  0  0  0  0  0  0  0  0  0  0
   39.7059  -46.2846    9.5367 C   0  0  0  0  0  0  0  0  0  0  0  0
   40.9281  -45.7744    9.1909 C   0  0  0  0  0  0  0  0  0  0  0  0
   41.5507  -46.2106    8.0370 C   0  0  0  0  0  0  0  0  0  0  0  0
   42.8468  -45.7040    7.6218 C   0  0  0  0  0  0  0  0  0  0  0  0
   43.6023  -44.8683    8.3489 N   0  0  0  0  0  0  0  0  0  0  0  0
   44.6863  -44.6561    7.6222 N   0  0  0  0  0  0  0  0  0  0  0  0
   44.6210  -45.3385    6.4652 C   0  0  0  0  0  0  0  0  0  0  0  0
   45.6039  -45.3819    5.3833 C   0  0  0  0  0  0  0  0  0  0  0  0
   45.0230  -45.5376    4.0733 N   0  0  0  0  0  0  0  0  0  0  0  0
   43.7489  -45.2853    3.8503 N   0  0  0  0  0  0  0  0  0  0  0  0
   43.2104  -45.4302    2.6333 N   0  0  0  0  0  0  0  0  0  0  0  0
   43.9289  -45.8382    1.5732 C   0  0  0  0  0  0  0  0  0  0  0  0
   43.3605  -45.9853    0.3146 C   0  0  0  0  0  0  0  0  0  0  0  0
   44.1409  -46.4073   -0.7423 C   0  0  0  0  0  0  0  0  0  0  0  0
   45.4738  -46.6712   -0.5083 C   0  0  0  0  0  0  0  0  0  0  0  0
   46.0727  -46.5378    0.7214 C   0  0  0  0  0  0  0  0  0  0  0  0
   45.2698  -46.1133    1.7654 C   0  0  0  0  0  0  0  0  0  0  0  0
   45.7768  -45.9471    3.0439 C   0  0  0  0  0  0  0  0  0  0  0  0
   46.9895  -46.1888    3.2495 O   0  0  0  0  0  0  0  0  0  0  0  0
   43.4648  -45.9761    6.5027 O   0  0  0  0  0  0  0  0  0  0  0  0
   40.9072  -47.1593    7.2642 C   0  0  0  0  0  0  0  0  0  0  0  0
  1  2  1  0  0  0  0
  2  3  2  0  0  0  0
  3  4  1  0  0  0  0
  4  5  2  0  0  0  0
  5  6  1  0  0  0  0
  6  7  1  0  0  0  0
  6 24  2  0  0  0  0
  7  8  2  0  0  0  0
  8  9  1  0  0  0  0
  9 10  2  0  0  0  0
 10 11  1  0  0  0  0
 10 23  1  0  0  0  0
 11 12  1  0  0  0  0
 12 13  1  0  0  0  0
 13 14  2  0  0  0  0
 14 15  1  0  0  0  0
 15 16  2  0  0  0  0
 16 17  1  0  0  0  0
 17 18  2  0  0  0  0
 18 19  1  0  0  0  0
 19 20  2  0  0  0  0
 20 21  1  0  0  0  0
 20 15  1  0  0  0  0
 21 22  2  0  0  0  0
 21 12  1  0  0  0  0
 23  7  1  0  0  0  0
 24  2  1  0  0  0  0
M  END
>  <CHROM.1>
5.64732219,-147.50172715,17.89513408,43.30813293,-46.11945384,4.96963389
2.17602004,0.38865430,1.38292376

>  <Name>
design_15

>  <RI>
0

>  <Rbt.Current_Directory>
/home/ziqiaoxu/icml18-jtnn/VAEdesign

>  <Rbt.Executable>
rbdock ($Id: //depot/dev/client3/rdock/2013.1/src/exe/rbdock.cxx#4 $)

>  <Rbt.Library>
libRbt.so (2013.1, Build901 2013/11/27)

>  <Rbt.Parameter_File>
/export/apps/rDock/src/rDock_2013.1_src//data/scripts/dock.prm

>  <Rbt.Receptor>
/home/ziqiaoxu/icml18-jtnn/VAEdesign/targets/RdRp-SARS-CoV-2/pocket_docking.prm

>  <SCORE>
-17.8007

>  <SCORE.INTER>
-18.3123

>  <SCORE.INTER.CONST>
1

>  <SCORE.INTER.POLAR>
0

>  <SCORE.INTER.REPUL>
0

>  <SCORE.INTER.ROT>
3

>  <SCORE.INTER.VDW>
-26.7123

>  <SCORE.INTER.norm>
-0.763014

>  <SCORE.INTRA>
0.511681

>  <SCORE.INTRA.DIHEDRAL>
0.124082

>  <SCORE.INTRA.DIHEDRAL.0>
3.73634

>  <SCORE.INTRA.POLAR>
0

>  <SCORE.INTRA.POLAR.0>
0

>  <SCORE.INTRA.REPUL>
0.00113307

>  <SCORE.INTRA.REPUL.0>
0

>  <SCORE.INTRA.VDW>
0.443975

>  <SCORE.INTRA.VDW.0>
-1.37345

>  <SCORE.INTRA.norm>
0.02132

>  <SCORE.RESTR>
0

>  <SCORE.RESTR.CAVITY>
0

>  <SCORE.RESTR.norm>
0

>  <SCORE.SYSTEM>
0

>  <SCORE.SYSTEM.CONST>
0

>  <SCORE.SYSTEM.DIHEDRAL>
0

>  <SCORE.SYSTEM.norm>
0

>  <SCORE.heavy>
24

>  <SCORE.norm>
-0.741694

$$$$
design_6
 OpenBabel05252019093D

 23 24  0  0  0  0  0  0  0  0999 V2000
   40.4585  -38.3850    7.2551 O   0  0  0  0  0  0  0  0  0  0  0  0
   39.6347  -39.0662    6.6313 C   0  0  0  0  0  0  0  0  0  0  0  0
   38.9976  -40.2084    7.3901 C   0  0  0  0  0  0  0  0  0  0  0  0
   39.6578  -40.3726    8.7376 C   0  0  0  0  0  0  0  0  0  0  0  0
   39.3288  -41.5645    9.4315 N   0  0  0  0  0  0  0  0  0  0  0  0
   40.1679  -42.6902    9.4437 C   0  0  0  0  0  0  0  0  0  0  0  0
   41.2472  -42.6533    8.8189 O   0  0  0  0  0  0  0  0  0  0  0  0
   39.8028  -43.8498   10.1496 N   0  0  0  0  0  0  0  0  0  0  0  0
   40.6239  -45.0350   10.1967 C   0  0  0  0  0  0  0  0  0  0  0  0
   40.1320  -46.0461    9.2290 C   0  0  0  0  0  0  0  0  0  0  0  0
   38.9067  -46.6666    9.3359 C   0  0  0  0  0  0  0  0  0  0  0  0
   38.4865  -47.6091    8.4100 C   0  0  0  0  0  0  0  0  0  0  0  0
   39.2753  -47.9663    7.3426 C   0  0  0  0  0  0  0  0  0  0  0  0
   38.7328  -49.1701    6.1644 Cl  0  0  0  0  0  0  0  0  0  0  0  0
   40.5070  -47.3587    7.2138 C   0  0  0  0  0  0  0  0  0  0  0  0
   40.9175  -46.4232    8.1378 C   0  0  0  0  0  0  0  0  0  0  0  0
   39.2930  -38.8227    5.3117 N   0  0  0  0  0  0  0  0  0  0  0  0
   39.7866  -37.8019    4.4709 C   0  0  0  0  0  0  0  0  0  0  0  0
   40.4431  -36.6727    4.9071 C   0  0  0  0  0  0  0  0  0  0  0  0
   40.9224  -35.7206    4.0337 C   0  0  0  0  0  0  0  0  0  0  0  0
   40.7397  -35.9021    2.6896 C   0  0  0  0  0  0  0  0  0  0  0  0
   40.0768  -37.0364    2.2093 C   0  0  0  0  0  0  0  0  0  0  0  0
   39.6126  -37.9621    3.0805 C   0  0  0  0  0  0  0  0  0  0  0  0
  1  2  2  0  0  0  0
  2  3  1  0  0  0  0
  2 17  1  0  0  0  0
  3  4  1  0  0  0  0
  4  5  1  0  0  0  0
  5  6  1  0  0  0  0
  6  7  2  0  0  0  0
  6  8  1  0  0  0  0
  8  9  1  0  0  0  0
  9 10  1  0  0  0  0
 10 11  2  0  0  0  0
 11 12  1  0  0  0  0
 12 13  2  0  0  0  0
 13 14  1  0  0  0  0
 13 15  1  0  0  0  0
 15 16  2  0  0  0  0
 16 10  1  0  0  0  0
 17 18  1  0  0  0  0
 18 19  2  0  0  0  0
 19 20  1  0  0  0  0
 20 21  2  0  0  0  0
 21 22  1  0  0  0  0
 22 23  2  0  0  0  0
 23 18  1  0  0  0  0
M  END
>  <CHROM.1>
-7.16658099,-168.25571756,99.52965186,-99.51055338,-65.30124944,-17.05778140
39.82509533,-42.39782180,6.98110726,-1.08280565,1.42997982,2.32304452

>  <Name>
design_6

>  <RI>
0

>  <Rbt.Current_Directory>
/home/ziqiaoxu/icml18-jtnn/VAEdesign

>  <Rbt.Executable>
rbdock ($Id: //depot/dev/client3/rdock/2013.1/src/exe/rbdock.cxx#4 $)

>  <Rbt.Library>
libRbt.so (2013.1, Build901 2013/11/27)

>  <Rbt.Parameter_File>
/export/apps/rDock/src/rDock_2013.1_src//data/scripts/dock.prm

>  <Rbt.Receptor>
/home/ziqiaoxu/icml18-jtnn/VAEdesign/targets/RdRp-SARS-CoV-2/pocket_docking.prm

>  <SCORE>
-21.5503

>  <SCORE.INTER>
-21.239

>  <SCORE.INTER.CONST>
1

>  <SCORE.INTER.POLAR>
-1.74554

>  <SCORE.INTER.REPUL>
0

>  <SCORE.INTER.ROT>
6

>  <SCORE.INTER.VDW>
-26.7041

>  <SCORE.INTER.norm>
-0.923434

>  <SCORE.INTRA>
-0.31858

>  <SCORE.INTRA.DIHEDRAL>
0.688117

>  <SCORE.INTRA.DIHEDRAL.0>
5.28044

>  <SCORE.INTRA.POLAR>
0

>  <SCORE.INTRA.POLAR.0>
0

>  <SCORE.INTRA.REPUL>
0

>  <SCORE.INTRA.REPUL.0>
0

>  <SCORE.INTRA.VDW>
-0.662638

>  <SCORE.INTRA.VDW.0>
0.717205

>  <SCORE.INTRA.norm>
-0.0138513

>  <SCORE.RESTR>
0.00726165

>  <SCORE.RESTR.CAVITY>
0.00726165

>  <SCORE.RESTR.norm>
0.000315724

>  <SCORE.SYSTEM>
0

>  <SCORE.SYSTEM.CONST>
0

>  <SCORE.SYSTEM.DIHEDRAL>
0

>  <SCORE.SYSTEM.norm>
0

>  <SCORE.heavy>
23

>  <SCORE.norm>
-0.936969

$$$$
design_9
 OpenBabel05252019093D

 24 26  0  0  0  0  0  0  0  0999 V2000
   38.7896  -49.1365    6.3203 C   0  0  0  0  0  0  0  0  0  0  0  0
   40.0711  -48.6054    6.5327 O   0  0  0  0  0  0  0  0  0  0  0  0
   40.2351  -47.5749    7.4536 C   0  0  0  0  0  0  0  0  0  0  0  0
   41.2598  -46.6651    7.3243 C   0  0  0  0  0  0  0  0  0  0  0  0
   41.4289  -45.6246    8.2505 C   0  0  0  0  0  0  0  0  0  0  0  0
   40.5891  -45.4667    9.3166 C   0  0  0  0  0  0  0  0  0  0  0  0
   40.7373  -44.3643   10.3027 C   0  0  0  0  0  0  0  0  0  0  0  0
   39.5663  -43.4505   10.3496 C   0  0  0  0  0  0  0  0  0  0  0  0
   39.5466  -42.5317    9.2605 N   0  0  0  0  0  0  0  0  0  0  0  0
   39.8437  -41.1684    9.4185 C   0  0  0  0  0  0  0  0  0  0  0  0
   40.1370  -40.7436   10.5758 O   0  0  0  0  0  0  0  0  0  0  0  0
   39.8154  -40.2651    8.2747 C   0  0  0  0  0  0  0  0  0  0  0  0
   40.3925  -39.0316    8.3790 C   0  0  0  0  0  0  0  0  0  0  0  0
   40.3529  -38.1710    7.2749 C   0  0  0  0  0  0  0  0  0  0  0  0
   39.7592  -38.5276    6.1082 C   0  0  0  0  0  0  0  0  0  0  0  0
   39.7316  -37.6341    4.9981 N   0  0  0  0  0  0  0  0  0  0  0  0
   40.2470  -36.3993    4.9438 C   0  0  0  0  0  0  0  0  0  0  0  0
   40.0069  -35.9010    3.7243 N   0  0  0  0  0  0  0  0  0  0  0  0
   39.3420  -36.8158    3.0072 N   0  0  0  0  0  0  0  0  0  0  0  0
   39.1952  -37.8466    3.8100 N   0  0  0  0  0  0  0  0  0  0  0  0
   39.1848  -39.7737    6.0246 C   0  0  0  0  0  0  0  0  0  0  0  0
   39.2063  -40.6393    7.0867 C   0  0  0  0  0  0  0  0  0  0  0  0
   39.5471  -46.3962    9.4441 C   0  0  0  0  0  0  0  0  0  0  0  0
   39.3876  -47.4158    8.5305 C   0  0  0  0  0  0  0  0  0  0  0  0
  1  2  1  0  0  0  0
  2  3  1  0  0  0  0
  3  4  2  0  0  0  0
  4  5  1  0  0  0  0
  5  6  2  0  0  0  0
  6  7  1  0  0  0  0
  6 23  1  0  0  0  0
  7  8  1  0  0  0  0
  8  9  1  0  0  0  0
  9 10  1  0  0  0  0
 10 11  2  0  0  0  0
 10 12  1  0  0  0  0
 12 13  2  0  0  0  0
 13 14  1  0  0  0  0
 14 15  2  0  0  0  0
 15 16  1  0  0  0  0
 15 21  1  0  0  0  0
 16 17  1  0  0  0  0
 17 18  2  0  0  0  0
 18 19  1  0  0  0  0
 19 20  2  0  0  0  0
 20 16  1  0  0  0  0
 21 22  2  0  0  0  0
 22 12  1  0  0  0  0
 23 24  2  0  0  0  0
 24  3  1  0  0  0  0
M  END
>  <CHROM.1>
-152.63379946,118.18254686,-77.53580873,-107.01523385,-165.16294043,-0.11153230
39.92022987,-42.12677281,7.35140218,1.30777145,1.47173303,3.09976977

>  <Name>
design_9

>  <RI>
0

>  <Rbt.Current_Directory>
/home/ziqiaoxu/icml18-jtnn/VAEdesign

>  <Rbt.Executable>
rbdock ($Id: //depot/dev/client3/rdock/2013.1/src/exe/rbdock.cxx#4 $)

>  <Rbt.Library>
libRbt.so (2013.1, Build901 2013/11/27)

>  <Rbt.Parameter_File>
/export/apps/rDock/src/rDock_2013.1_src//data/scripts/dock.prm

>  <Rbt.Receptor>
/home/ziqiaoxu/icml18-jtnn/VAEdesign/targets/RdRp-SARS-CoV-2/pocket_docking.prm

>  <SCORE>
-18.9079

>  <SCORE.INTER>
-17.0023

>  <SCORE.INTER.CONST>
1

>  <SCORE.INTER.POLAR>
-0.501153

>  <SCORE.INTER.REPUL>
0

>  <SCORE.INTER.ROT>
6

>  <SCORE.INTER.VDW>
-26.6984

>  <SCORE.INTER.norm>
-0.708429

>  <SCORE.INTRA>
-1.92011

>  <SCORE.INTRA.DIHEDRAL>
-2.96843

>  <SCORE.INTRA.DIHEDRAL.0>
7.83346

>  <SCORE.INTRA.POLAR>
0

>  <SCORE.INTRA.POLAR.0>
0

>  <SCORE.INTRA.REPUL>
0

>  <SCORE.INTRA.REPUL.0>
0

>  <SCORE.INTRA.VDW>
-0.435892

>  <SCORE.INTRA.VDW.0>
1.50175

>  <SCORE.INTRA.norm>
-0.0800045

>  <SCORE.RESTR>
0.0145566

>  <SCORE.RESTR.CAVITY>
0.0145566

>  <SCORE.RESTR.norm>
0.000606523

>  <SCORE.SYSTEM>
0

>  <SCORE.SYSTEM.CONST>
0

>  <SCORE.SYSTEM.DIHEDRAL>
0

>  <SCORE.SYSTEM.norm>
0

>  <SCORE.heavy>
24

>  <SCORE.norm>
-0.787827

$$$$
design_3
 OpenBabel05252019093D

 25 27  0  0  0  0  0  0  0  0999 V2000
   43.1064  -43.9401    0.1447 N   0  0  0  0  0  0  0  0  0  0  0  0
   43.0129  -45.2876    0.5622 C   0  0  0  0  0  0  0  0  0  0  0  0
   42.5353  -45.5417    1.6862 O   0  0  0  0  0  0  0  0  0  0  0  0
   43.4689  -46.3579   -0.3114 C   0  0  0  0  0  0  0  0  0  0  0  0
   44.8751  -46.5059   -0.4384 N   0  0  0  0  0  0  0  0  0  0  0  0
   45.7803  -46.6329    0.6482 C   0  0  0  0  0  0  0  0  0  0  0  0
   47.0629  -47.0659    0.4221 C   0  0  0  0  0  0  0  0  0  0  0  0
   47.8899  -47.1590    1.5192 C   0  0  0  0  0  0  0  0  0  0  0  0
   47.4823  -46.8424    2.7893 C   0  0  0  0  0  0  0  0  0  0  0  0
   46.1675  -46.3962    3.0411 C   0  0  0  0  0  0  0  0  0  0  0  0
   45.8303  -46.0687    4.3812 N   0  0  0  0  0  0  0  0  0  0  0  0
   44.7331  -45.2820    4.7557 C   0  0  0  0  0  0  0  0  0  0  0  0
   43.9259  -44.7910    3.9445 O   0  0  0  0  0  0  0  0  0  0  0  0
   44.5137  -45.0171    6.1799 C   0  0  0  0  0  0  0  0  0  0  0  0
   45.4784  -44.4182    6.9277 C   0  0  0  0  0  0  0  0  0  0  0  0
   45.2584  -44.1814    8.2882 C   0  0  0  0  0  0  0  0  0  0  0  0
   44.0560  -44.5745    8.8043 C   0  0  0  0  0  0  0  0  0  0  0  0
   43.0719  -45.1826    8.0517 C   0  0  0  0  0  0  0  0  0  0  0  0
   41.7840  -45.5844    8.6892 C   0  0  0  0  0  0  0  0  0  0  0  0
   40.9074  -46.4183    8.1138 C   0  0  0  0  0  0  0  0  0  0  0  0
   39.7634  -46.7059    8.8049 C   0  0  0  0  0  0  0  0  0  0  0  0
   39.9437  -45.8037   10.2391 S   0  0  0  0  0  0  0  0  0  0  0  0
   41.4601  -45.0887    9.9241 C   0  0  0  0  0  0  0  0  0  0  0  0
   43.3152  -45.3994    6.7326 C   0  0  0  0  0  0  0  0  0  0  0  0
   45.3584  -46.3074    1.9474 C   0  0  0  0  0  0  0  0  0  0  0  0
  1  2  1  0  0  0  0
  2  3  2  0  0  0  0
  2  4  1  0  0  0  0
  4  5  1  0  0  0  0
  5  6  1  0  0  0  0
  6  7  2  0  0  0  0
  7  8  1  0  0  0  0
  8  9  2  0  0  0  0
  9 10  1  0  0  0  0
 10 11  1  0  0  0  0
 10 25  2  0  0  0  0
 11 12  1  0  0  0  0
 12 13  2  0  0  0  0
 12 14  1  0  0  0  0
 14 15  2  0  0  0  0
 15 16  1  0  0  0  0
 16 17  2  0  0  0  0
 17 18  1  0  0  0  0
 18 19  1  0  0  0  0
 18 24  2  0  0  0  0
 19 20  1  0  0  0  0
 20 21  2  0  0  0  0
 21 22  1  0  0  0  0
 22 23  1  0  0  0  0
 23 19  2  0  0  0  0
 24 14  1  0  0  0  0
 25  6  1  0  0  0  0
M  END
>  <CHROM.1>
73.95813796,52.67885756,165.44353163,161.54499953,57.66745228,-165.38837057
43.80250610,-45.69159622,4.82384590,1.13694802,0.03075188,-1.63320803

>  <Name>
design_3

>  <RI>
0

>  <Rbt.Current_Directory>
/home/ziqiaoxu/icml18-jtnn/VAEdesign

>  <Rbt.Executable>
rbdock ($Id: //depot/dev/client3/rdock/2013.1/src/exe/rbdock.cxx#4 $)

>  <Rbt.Library>
libRbt.so (2013.1, Build901 2013/11/27)

>  <Rbt.Parameter_File>
/export/apps/rDock/src/rDock_2013.1_src//data/scripts/dock.prm

>  <Rbt.Receptor>
/home/ziqiaoxu/icml18-jtnn/VAEdesign/targets/RdRp-SARS-CoV-2/pocket_docking.prm

>  <SCORE>
-22.1794

>  <SCORE.INTER>
-24.0274

>  <SCORE.INTER.CONST>
1

>  <SCORE.INTER.POLAR>
-2.58407

>  <SCORE.INTER.REPUL>
0.0100338

>  <SCORE.INTER.ROT>
6

>  <SCORE.INTER.VDW>
-26.6917

>  <SCORE.INTER.norm>
-0.961095

>  <SCORE.INTRA>
1.84797

>  <SCORE.INTRA.DIHEDRAL>
5.05642

>  <SCORE.INTRA.DIHEDRAL.0>
10.7203

>  <SCORE.INTRA.POLAR>
0

>  <SCORE.INTRA.POLAR.0>
0

>  <SCORE.INTRA.REPUL>
0

>  <SCORE.INTRA.REPUL.0>
0

>  <SCORE.INTRA.VDW>
-0.680245

>  <SCORE.INTRA.VDW.0>
0.0660066

>  <SCORE.INTRA.norm>
0.0739187

>  <SCORE.RESTR>
0

>  <SCORE.RESTR.CAVITY>
0

>  <SCORE.RESTR.norm>
0

>  <SCORE.SYSTEM>
0

>  <SCORE.SYSTEM.CONST>
0

>  <SCORE.SYSTEM.DIHEDRAL>
0

>  <SCORE.SYSTEM.norm>
0

>  <SCORE.heavy>
25

>  <SCORE.norm>
-0.887177

$$$$
design_14
 OpenBabel05252019093D

 27 29  0  0  0  0  0  0  0  0999 V2000
   39.4657  -49.0918    6.7383 C   0  0  0  0  0  0  0  0  0  0  0  0
   39.3187  -47.6260    6.7094 N   0  0  0  0  0  0  0  0  0  0  0  0
   38.5751  -47.0307    5.6729 C   0  0  0  0  0  0  0  0  0  0  0  0
   39.2309  -45.8052    5.1527 C   0  0  0  0  0  0  0  0  0  0  0  0
   38.8425  -44.6966    5.6555 O   0  0  0  0  0  0  0  0  0  0  0  0
   40.2225  -45.8805    4.1664 N   0  0  0  0  0  0  0  0  0  0  0  0
   40.8623  -44.6833    3.6690 C   0  0  0  0  0  0  0  0  0  0  0  0
   40.6326  -44.5775    2.1849 C   0  0  0  0  0  0  0  0  0  0  0  0
   41.0550  -43.2799    1.7281 N   0  0  0  0  0  0  0  0  0  0  0  0
   42.4070  -42.9049    1.5388 C   0  0  0  0  0  0  0  0  0  0  0  0
   43.3994  -43.6503    1.7408 O   0  0  0  0  0  0  0  0  0  0  0  0
   42.7626  -41.5496    1.0699 C   0  0  0  0  0  0  0  0  0  0  0  0
   41.9130  -40.4987    1.3844 C   0  0  0  0  0  0  0  0  0  0  0  0
   42.2417  -39.2325    0.9458 C   0  0  0  0  0  0  0  0  0  0  0  0
   43.3936  -39.0284    0.2104 C   0  0  0  0  0  0  0  0  0  0  0  0
   44.2370  -40.0713   -0.1020 C   0  0  0  0  0  0  0  0  0  0  0  0
   43.9035  -41.3332    0.3388 C   0  0  0  0  0  0  0  0  0  0  0  0
   44.9687  -42.6548   -0.0535 Cl  0  0  0  0  0  0  0  0  0  0  0  0
   39.9416  -46.9232    7.7473 C   0  0  0  0  0  0  0  0  0  0  0  0
   39.3334  -46.7616    8.9644 N   0  0  0  0  0  0  0  0  0  0  0  0
   39.9016  -46.0812    9.9656 C   0  0  0  0  0  0  0  0  0  0  0  0
   41.1129  -45.5205    9.8119 N   0  0  0  0  0  0  0  0  0  0  0  0
   41.7700  -45.6330    8.6581 C   0  0  0  0  0  0  0  0  0  0  0  0
   42.9854  -45.1635    8.2913 N   0  0  0  0  0  0  0  0  0  0  0  0
   43.1632  -45.5719    7.0257 C   0  0  0  0  0  0  0  0  0  0  0  0
   42.0962  -46.2716    6.6175 N   0  0  0  0  0  0  0  0  0  0  0  0
   41.1792  -46.3397    7.6191 C   0  0  0  0  0  0  0  0  0  0  0  0
  1  2  1  0  0  0  0
  2  3  1  0  0  0  0
  2 19  1  0  0  0  0
  3  4  1  0  0  0  0
  4  5  2  0  0  0  0
  4  6  1  0  0  0  0
  6  7  1  0  0  0  0
  7  8  1  0  0  0  0
  8  9  1  0  0  0  0
  9 10  1  0  0  0  0
 10 11  2  0  0  0  0
 10 12  1  0  0  0  0
 12 13  2  0  0  0  0
 13 14  1  0  0  0  0
 14 15  2  0  0  0  0
 15 16  1  0  0  0  0
 16 17  2  0  0  0  0
 17 18  1  0  0  0  0
 17 12  1  0  0  0  0
 19 20  2  0  0  0  0
 20 21  1  0  0  0  0
 21 22  2  0  0  0  0
 22 23  1  0  0  0  0
 23 24  1  0  0  0  0
 24 25  1  0  0  0  0
 25 26  2  0  0  0  0
 26 27  1  0  0  0  0
 27 19  1  0  0  0  0
 27 23  2  0  0  0  0
M  END
>  <CHROM.1>
-138.01813833,-94.95391607,-120.66624773,169.76625879,76.55455786,29.01428302
-83.63229163,41.60652863,-44.32404839,4.33411475,1.99810192,0.62719203,1.93558371

>  <Name>
design_14

>  <RI>
0

>  <Rbt.Current_Directory>
/home/ziqiaoxu/icml18-jtnn/VAEdesign

>  <Rbt.Executable>
rbdock ($Id: //depot/dev/client3/rdock/2013.1/src/exe/rbdock.cxx#4 $)

>  <Rbt.Library>
libRbt.so (2013.1, Build901 2013/11/27)

>  <Rbt.Parameter_File>
/export/apps/rDock/src/rDock_2013.1_src//data/scripts/dock.prm

>  <Rbt.Receptor>
/home/ziqiaoxu/icml18-jtnn/VAEdesign/targets/RdRp-SARS-CoV-2/pocket_docking.prm

>  <SCORE>
-20.9

>  <SCORE.INTER>
-20.758

>  <SCORE.INTER.CONST>
1

>  <SCORE.INTER.POLAR>
-1.90303

>  <SCORE.INTER.REPUL>
0

>  <SCORE.INTER.ROT>
7

>  <SCORE.INTER.VDW>
-26.6877

>  <SCORE.INTER.norm>
-0.768814

>  <SCORE.INTRA>
-0.142009

>  <SCORE.INTRA.DIHEDRAL>
2.58388

>  <SCORE.INTRA.DIHEDRAL.0>
19.608

>  <SCORE.INTRA.POLAR>
0

>  <SCORE.INTRA.POLAR.0>
0

>  <SCORE.INTRA.REPUL>
0

>  <SCORE.INTRA.REPUL.0>
0

>  <SCORE.INTRA.VDW>
-1.43395

>  <SCORE.INTRA.VDW.0>
-0.420278

>  <SCORE.INTRA.norm>
-0.00525959

>  <SCORE.RESTR>
0

>  <SCORE.RESTR.CAVITY>
0

>  <SCORE.RESTR.norm>
0

>  <SCORE.SYSTEM>
0

>  <SCORE.SYSTEM.CONST>
0

>  <SCORE.SYSTEM.DIHEDRAL>
0

>  <SCORE.SYSTEM.norm>
0

>  <SCORE.heavy>
27

>  <SCORE.norm>
-0.774074

$$$$
design_6
 OpenBabel05252019093D

 22 23  0  0  0  0  0  0  0  0999 V2000
   35.1902  -40.4460    5.6770 C   0  0  0  0  0  0  0  0  0  0  0  0
   35.3864  -41.8793    5.5872 N   0  0  0  0  0  0  0  0  0  0  0  0
   36.6590  -42.4516    5.7945 C   0  0  0  0  0  0  0  0  0  0  0  0
   37.6360  -41.7084    6.0608 O   0  0  0  0  0  0  0  0  0  0  0  0
   36.9116  -43.8846    5.7162 C   0  0  0  0  0  0  0  0  0  0  0  0
   35.8566  -44.7968    5.8145 C   0  0  0  0  0  0  0  0  0  0  0  0
   36.0891  -46.1488    5.7413 C   0  0  0  0  0  0  0  0  0  0  0  0
   37.3487  -46.6557    5.5710 C   0  0  0  0  0  0  0  0  0  0  0  0
   37.5470  -48.0450    5.5007 N   0  0  0  0  0  0  0  0  0  0  0  0
   38.7610  -48.6295    6.0556 C   0  0  0  0  0  0  0  0  0  0  0  0
   39.2666  -47.7251    7.1074 C   0  0  0  0  0  0  0  0  0  0  0  0
   40.5126  -47.1662    6.9767 C   0  0  0  0  0  0  0  0  0  0  0  0
   40.9799  -46.3176    7.9736 C   0  0  0  0  0  0  0  0  0  0  0  0
   40.2361  -46.0161    9.0905 C   0  0  0  0  0  0  0  0  0  0  0  0
   40.9002  -44.9360   10.3009 S   0  0  0  0  0  0  0  0  0  0  0  0
   40.0558  -43.3800   10.2348 C   0  0  0  0  0  0  0  0  0  0  0  0
   40.7164  -45.6061   11.6331 O   0  0  0  0  0  0  0  0  0  0  0  0
   42.3559  -44.7598    9.9769 O   0  0  0  0  0  0  0  0  0  0  0  0
   38.9853  -46.5797    9.2170 C   0  0  0  0  0  0  0  0  0  0  0  0
   38.5128  -47.4320    8.2187 C   0  0  0  0  0  0  0  0  0  0  0  0
   38.4047  -45.7942    5.4710 C   0  0  0  0  0  0  0  0  0  0  0  0
   38.1677  -44.4223    5.5454 C   0  0  0  0  0  0  0  0  0  0  0  0
  1  2  1  0  0  0  0
  2  3  1  0  0  0  0
  3  4  2  0  0  0  0
  3  5  1  0  0  0  0
  5  6  2  0  0  0  0
  6  7  1  0  0  0  0
  7  8  2  0  0  0  0
  8  9  1  0  0  0  0
  8 21  1  0  0  0  0
  9 10  1  0  0  0  0
 10 11  1  0  0  0  0
 11 12  2  0  0  0  0
 12 13  1  0  0  0  0
 13 14  2  0  0  0  0
 14 15  1  0  0  0  0
 14 19  1  0  0  0  0
 15 16  1  0  0  0  0
 15 17  2  0  0  0  0
 15 18  2  0  0  0  0
 19 20  2  0  0  0  0
 20 11  1  0  0  0  0
 21 22  2  0  0  0  0
 22  5  1  0  0  0  0
M  END
>  <CHROM.1>
-18.69461949,-145.52711949,25.24561598,-119.22903905,108.14287164,38.63689585
-45.13448283,7.46930380,-2.98227073,0.81522500,-2.80235891

>  <Name>
design_6

>  <RI>
0

>  <Rbt.Current_Directory>
/home/ziqiaoxu/icml18-jtnn/VAEdesign

>  <Rbt.Executable>
rbdock ($Id: //depot/dev/client3/rdock/2013.1/src/exe/rbdock.cxx#4 $)

>  <Rbt.Library>
libRbt.so (2013.1, Build901 2013/11/27)

>  <Rbt.Parameter_File>
/export/apps/rDock/src/rDock_2013.1_src//data/scripts/dock.prm

>  <Rbt.Receptor>
/home/ziqiaoxu/icml18-jtnn/VAEdesign/targets/RdRp-SARS-CoV-2/pocket_docking.prm

>  <SCORE>
-15.3103

>  <SCORE.INTER>
-18.2509

>  <SCORE.INTER.CONST>
1

>  <SCORE.INTER.POLAR>
-0.578642

>  <SCORE.INTER.REPUL>
0

>  <SCORE.INTER.ROT>
5

>  <SCORE.INTER.VDW>
-26.6835

>  <SCORE.INTER.norm>
-0.829587

>  <SCORE.INTRA>
2.90753

>  <SCORE.INTRA.DIHEDRAL>
5.40158

>  <SCORE.INTRA.DIHEDRAL.0>
4.31891

>  <SCORE.INTRA.POLAR>
0

>  <SCORE.INTRA.POLAR.0>
0

>  <SCORE.INTRA.REPUL>
0

>  <SCORE.INTRA.REPUL.0>
0

>  <SCORE.INTRA.VDW>
0.20674

>  <SCORE.INTRA.VDW.0>
1.08355

>  <SCORE.INTRA.norm>
0.13216

>  <SCORE.RESTR>
0.0331383

>  <SCORE.RESTR.CAVITY>
0.0331383

>  <SCORE.RESTR.norm>
0.00150629

>  <SCORE.SYSTEM>
0

>  <SCORE.SYSTEM.CONST>
0

>  <SCORE.SYSTEM.DIHEDRAL>
0

>  <SCORE.SYSTEM.norm>
0

>  <SCORE.heavy>
22

>  <SCORE.norm>
-0.695921

$$$$
design_13
 OpenBabel05252019093D

 22 23  0  0  0  0  0  0  0  0999 V2000
   39.8559  -37.1774    5.8110 C   0  0  0  0  0  0  0  0  0  0  0  0
   39.6273  -38.3461    6.7461 C   0  0  1  0  0  0  0  0  0  0  0  0
   39.6896  -39.6136    5.9507 C   0  0  0  0  0  0  0  0  0  0  0  0
   40.0195  -40.8415    6.6988 C   0  0  0  0  0  0  0  0  0  0  0  0
   40.0644  -40.7278    8.2013 C   0  0  1  0  0  0  0  0  0  0  0  0
   40.6942  -41.8884    8.7883 N   0  0  0  0  0  0  0  0  0  0  0  0
   40.0801  -42.6065    9.8150 C   0  0  0  0  0  0  0  0  0  0  0  0
   38.9117  -42.2828   10.2521 O   0  0  0  0  0  0  0  0  0  0  0  0
   40.6787  -43.7821   10.4898 C   0  0  0  0  0  0  0  0  0  0  0  0
   39.9378  -44.9716   10.1396 N   0  0  0  0  0  0  0  0  0  0  0  0
   40.4582  -45.8616    9.1616 C   0  0  0  0  0  0  0  0  0  0  0  0
   41.5830  -45.6013    8.6485 O   0  0  0  0  0  0  0  0  0  0  0  0
   39.7635  -47.0724    8.6896 C   0  0  0  0  0  0  0  0  0  0  0  0
   37.9887  -46.9704    8.5831 S   0  0  0  0  0  0  0  0  0  0  0  0
   37.5505  -45.7989    7.2847 C   0  0  0  0  0  0  0  0  0  0  0  0
   38.2557  -44.6439    7.0505 C   0  0  0  0  0  0  0  0  0  0  0  0
   37.8807  -43.7262    6.0650 C   0  0  0  0  0  0  0  0  0  0  0  0
   36.7657  -44.0075    5.3138 C   0  0  0  0  0  0  0  0  0  0  0  0
   36.0385  -45.1562    5.5204 C   0  0  0  0  0  0  0  0  0  0  0  0
   36.4308  -46.0300    6.4903 C   0  0  0  0  0  0  0  0  0  0  0  0
   40.6213  -39.4617    8.7406 C   0  0  0  0  0  0  0  0  0  0  0  0
   40.7923  -38.3737    7.7164 C   0  0  0  0  0  0  0  0  0  0  0  0
  2  1  1  6  0  0  0
  2  3  1  0  0  0  0
  3  4  1  0  0  0  0
  4  5  1  0  0  0  0
  5  6  1  1  0  0  0
  5 21  1  0  0  0  0
  6  7  1  0  0  0  0
  7  8  2  0  0  0  0
  7  9  1  0  0  0  0
  9 10  1  0  0  0  0
 10 11  1  0  0  0  0
 11 12  2  0  0  0  0
 11 13  1  0  0  0  0
 13 14  1  0  0  0  0
 14 15  1  0  0  0  0
 15 16  2  0  0  0  0
 16 17  1  0  0  0  0
 17 18  2  0  0  0  0
 18 19  1  0  0  0  0
 19 20  2  0  0  0  0
 20 15  1  0  0  0  0
 21 22  1  0  0  0  0
 22  2  1  0  0  0  0
M  END
>  <CHROM.1>
-128.41227864,-111.22892816,101.65157389,34.91565737,67.04366605,-37.60612558
39.23636324,-43.13627039,7.90390383,1.22400981,-0.82763856,-0.38435493

>  <Name>
design_13

>  <RI>
0

>  <Rbt.Current_Directory>
/home/ziqiaoxu/icml18-jtnn/VAEdesign

>  <Rbt.Executable>
rbdock ($Id: //depot/dev/client3/rdock/2013.1/src/exe/rbdock.cxx#4 $)

>  <Rbt.Library>
libRbt.so (2013.1, Build901 2013/11/27)

>  <Rbt.Parameter_File>
/export/apps/rDock/src/rDock_2013.1_src//data/scripts/dock.prm

>  <Rbt.Receptor>
/home/ziqiaoxu/icml18-jtnn/VAEdesign/targets/RdRp-SARS-CoV-2/pocket_docking.prm

>  <SCORE>
-21.1905

>  <SCORE.INTER>
-18.7494

>  <SCORE.INTER.CONST>
1

>  <SCORE.INTER.POLAR>
-1.0198

>  <SCORE.INTER.REPUL>
0

>  <SCORE.INTER.ROT>
6

>  <SCORE.INTER.VDW>
-26.682

>  <SCORE.INTER.norm>
-0.852244

>  <SCORE.INTRA>
-2.44118

>  <SCORE.INTRA.DIHEDRAL>
-2.09637

>  <SCORE.INTRA.DIHEDRAL.0>
9.19105

>  <SCORE.INTRA.POLAR>
0

>  <SCORE.INTRA.POLAR.0>
0

>  <SCORE.INTRA.REPUL>
0

>  <SCORE.INTRA.REPUL.0>
0

>  <SCORE.INTRA.VDW>
-1.39299

>  <SCORE.INTRA.VDW.0>
-2.18215

>  <SCORE.INTRA.norm>
-0.110963

>  <SCORE.RESTR>
0

>  <SCORE.RESTR.CAVITY>
0

>  <SCORE.RESTR.norm>
0

>  <SCORE.SYSTEM>
0

>  <SCORE.SYSTEM.CONST>
0

>  <SCORE.SYSTEM.DIHEDRAL>
0

>  <SCORE.SYSTEM.norm>
0

>  <SCORE.heavy>
22

>  <SCORE.norm>
-0.963206

$$$$
design_17
 OpenBabel05252019093D

 23 26  0  0  0  0  0  0  0  0999 V2000
   38.6257  -40.7908    9.1163 O   0  0  0  0  0  0  0  0  0  0  0  0
   39.7896  -41.1157    8.7181 C   0  0  0  0  0  0  0  0  0  0  0  0
   40.5016  -42.2167    9.2485 N   0  0  0  0  0  0  0  0  0  0  0  0
   39.9785  -43.0654   10.2924 C   0  0  0  0  0  0  0  0  0  0  0  0
   40.8251  -44.2729   10.4524 C   0  0  0  0  0  0  0  0  0  0  0  0
   40.4359  -45.3549    9.4866 C   0  0  0  0  0  0  0  0  0  0  0  0
   41.0522  -45.6275    8.3261 N   0  0  0  0  0  0  0  0  0  0  0  0
   40.4418  -46.6577    7.7141 C   0  0  0  0  0  0  0  0  0  0  0  0
   40.6326  -47.3462    6.5366 C   0  0  0  0  0  0  0  0  0  0  0  0
   39.8212  -48.3983    6.1531 C   0  0  0  0  0  0  0  0  0  0  0  0
   38.7780  -48.7879    6.9645 C   0  0  0  0  0  0  0  0  0  0  0  0
   38.5813  -48.1065    8.1401 C   0  0  0  0  0  0  0  0  0  0  0  0
   39.3874  -47.0566    8.5274 C   0  0  0  0  0  0  0  0  0  0  0  0
   39.4286  -46.2318    9.5918 N   0  0  0  0  0  0  0  0  0  0  0  0
   40.4251  -40.2959    7.6450 C   0  0  2  0  0  0  0  0  0  0  0  0
   40.0117  -38.8469    7.7409 C   0  0  0  0  0  0  0  0  0  0  0  0
   39.9374  -38.2435    6.4265 C   0  0  0  0  0  0  0  0  0  0  0  0
   40.1062  -36.8850    6.1020 C   0  0  0  0  0  0  0  0  0  0  0  0
   40.0062  -36.4105    4.8381 C   0  0  0  0  0  0  0  0  0  0  0  0
   39.7261  -37.2695    3.7885 C   0  0  0  0  0  0  0  0  0  0  0  0
   39.5552  -38.6121    4.0786 C   0  0  0  0  0  0  0  0  0  0  0  0
   39.6629  -39.0670    5.3731 C   0  0  0  0  0  0  0  0  0  0  0  0
   39.5238  -40.7209    6.0896 S   0  0  0  0  0  0  0  0  0  0  0  0
  1  2  2  0  0  0  0
  2  3  1  0  0  0  0
  3  4  1  0  0  0  0
  4  5  1  0  0  0  0
  5  6  1  0  0  0  0
  6  7  2  0  0  0  0
  7  8  1  0  0  0  0
  8  9  2  0  0  0  0
  9 10  1  0  0  0  0
 10 11  2  0  0  0  0
 11 12  1  0  0  0  0
 12 13  2  0  0  0  0
 13 14  1  0  0  0  0
 13  8  1  0  0  0  0
 14  6  1  0  0  0  0
 15  2  1  1  0  0  0
 15 16  1  0  0  0  0
 16 17  1  0  0  0  0
 17 18  2  0  0  0  0
 18 19  1  0  0  0  0
 19 20  2  0  0  0  0
 20 21  1  0  0  0  0
 21 22  2  0  0  0  0
 22 23  1  0  0  0  0
 22 17  1  0  0  0  0
 23 15  1  0  0  0  0
M  END
>  <CHROM.1>
169.03539608,-84.94663637,99.05178264,32.86888091,39.85531574,-42.55527836
7.42780594,-1.52813135,1.47658547,2.83413164

>  <Name>
design_17

>  <RI>
0

>  <Rbt.Current_Directory>
/home/ziqiaoxu/icml18-jtnn/VAEdesign

>  <Rbt.Executable>
rbdock ($Id: //depot/dev/client3/rdock/2013.1/src/exe/rbdock.cxx#4 $)

>  <Rbt.Library>
libRbt.so (2013.1, Build901 2013/11/27)

>  <Rbt.Parameter_File>
/export/apps/rDock/src/rDock_2013.1_src//data/scripts/dock.prm

>  <Rbt.Receptor>
/home/ziqiaoxu/icml18-jtnn/VAEdesign/targets/RdRp-SARS-CoV-2/pocket_docking.prm

>  <SCORE>
-19.8062

>  <SCORE.INTER>
-20.7307

>  <SCORE.INTER.CONST>
1

>  <SCORE.INTER.POLAR>
-1.01863

>  <SCORE.INTER.REPUL>
0

>  <SCORE.INTER.ROT>
4

>  <SCORE.INTER.VDW>
-26.6673

>  <SCORE.INTER.norm>
-0.901334

>  <SCORE.INTRA>
0.922485

>  <SCORE.INTRA.DIHEDRAL>
2.98644

>  <SCORE.INTRA.DIHEDRAL.0>
3.33683

>  <SCORE.INTRA.POLAR>
0

>  <SCORE.INTRA.POLAR.0>
0

>  <SCORE.INTRA.REPUL>
0

>  <SCORE.INTRA.REPUL.0>
0

>  <SCORE.INTRA.VDW>
-0.570734

>  <SCORE.INTRA.VDW.0>
-0.0566868

>  <SCORE.INTRA.norm>
0.040108

>  <SCORE.RESTR>
0.00199422

>  <SCORE.RESTR.CAVITY>
0.00199422

>  <SCORE.RESTR.norm>
8.67052e-05

>  <SCORE.SYSTEM>
0

>  <SCORE.SYSTEM.CONST>
0

>  <SCORE.SYSTEM.DIHEDRAL>
0

>  <SCORE.SYSTEM.norm>
0

>  <SCORE.heavy>
23

>  <SCORE.norm>
-0.861139

$$$$
design_5
 OpenBabel05252019093D

 21 22  0  0  0  0  0  0  0  0999 V2000
   41.5051  -44.4518   10.7984 C   0  0  0  0  0  0  0  0  0  0  0  0
   40.9783  -45.3498    9.7408 C   0  0  0  0  0  0  0  0  0  0  0  0
   39.8274  -46.0738    9.9555 C   0  0  0  0  0  0  0  0  0  0  0  0
   39.3258  -46.9120    8.9827 C   0  0  0  0  0  0  0  0  0  0  0  0
   39.9433  -47.0774    7.7372 C   0  0  0  0  0  0  0  0  0  0  0  0
   39.2710  -48.1362    6.5649 S   0  0  0  0  0  0  0  0  0  0  0  0
   38.9698  -49.4527    7.2421 O   0  0  0  0  0  0  0  0  0  0  0  0
   40.3264  -48.3550    5.4817 O   0  0  0  0  0  0  0  0  0  0  0  0
   37.8600  -47.6233    5.7767 N   0  0  0  0  0  0  0  0  0  0  0  0
   37.3938  -46.3102    5.8238 C   0  0  0  0  0  0  0  0  0  0  0  0
   38.2408  -45.2874    6.2689 C   0  0  0  0  0  0  0  0  0  0  0  0
   37.8389  -43.9898    6.3606 C   0  0  0  0  0  0  0  0  0  0  0  0
   36.5432  -43.6499    6.0032 C   0  0  0  0  0  0  0  0  0  0  0  0
   36.1104  -42.2379    6.1049 C   0  0  0  0  0  0  0  0  0  0  0  0
   34.7193  -41.9602    6.1009 N   0  0  0  0  0  0  0  0  0  0  0  0
   36.9362  -41.3158    6.1918 O   0  0  0  0  0  0  0  0  0  0  0  0
   35.6855  -44.6242    5.5624 C   0  0  0  0  0  0  0  0  0  0  0  0
   36.1317  -45.9242    5.4841 C   0  0  0  0  0  0  0  0  0  0  0  0
   41.1004  -46.3400    7.5404 C   0  0  0  0  0  0  0  0  0  0  0  0
   41.5965  -45.5038    8.5175 C   0  0  0  0  0  0  0  0  0  0  0  0
   42.8396  -44.7301    8.2684 C   0  0  0  0  0  0  0  0  0  0  0  0
  1  2  1  0  0  0  0
  2  3  2  0  0  0  0
  3  4  1  0  0  0  0
  4  5  2  0  0  0  0
  5  6  1  0  0  0  0
  5 19  1  0  0  0  0
  6  7  2  0  0  0  0
  6  8  2  0  0  0  0
  6  9  1  0  0  0  0
  9 10  1  0  0  0  0
 10 11  2  0  0  0  0
 11 12  1  0  0  0  0
 12 13  2  0  0  0  0
 13 14  1  0  0  0  0
 13 17  1  0  0  0  0
 14 15  1  0  0  0  0
 14 16  2  0  0  0  0
 17 18  2  0  0  0  0
 18 10  1  0  0  0  0
 19 20  2  0  0  0  0
 20 21  1  0  0  0  0
 20  2  1  0  0  0  0
M  END
>  <CHROM.1>
-48.68829367,13.78541859,15.00683359,-162.73583212,38.75077711,-45.66031968
7.11077112,-0.46162874,-0.62223646,0.32753819

>  <Name>
design_5

>  <RI>
0

>  <Rbt.Current_Directory>
/home/ziqiaoxu/icml18-jtnn/VAEdesign

>  <Rbt.Executable>
rbdock ($Id: //depot/dev/client3/rdock/2013.1/src/exe/rbdock.cxx#4 $)

>  <Rbt.Library>
libRbt.so (2013.1, Build901 2013/11/27)

>  <Rbt.Parameter_File>
/export/apps/rDock/src/rDock_2013.1_src//data/scripts/dock.prm

>  <Rbt.Receptor>
/home/ziqiaoxu/icml18-jtnn/VAEdesign/targets/RdRp-SARS-CoV-2/pocket_docking.prm

>  <SCORE>
-23.4977

>  <SCORE.INTER>
-20.7102

>  <SCORE.INTER.CONST>
1

>  <SCORE.INTER.POLAR>
-1.01383

>  <SCORE.INTER.REPUL>
0

>  <SCORE.INTER.ROT>
4

>  <SCORE.INTER.VDW>
-26.6632

>  <SCORE.INTER.norm>
-0.986202

>  <SCORE.INTRA>
-2.78742

>  <SCORE.INTRA.DIHEDRAL>
-6.37219

>  <SCORE.INTRA.DIHEDRAL.0>
10.8298

>  <SCORE.INTRA.POLAR>
0

>  <SCORE.INTRA.POLAR.0>
0

>  <SCORE.INTRA.REPUL>
0

>  <SCORE.INTRA.REPUL.0>
0

>  <SCORE.INTRA.VDW>
0.398673

>  <SCORE.INTRA.VDW.0>
-2.2932

>  <SCORE.INTRA.norm>
-0.132734

>  <SCORE.RESTR>
0

>  <SCORE.RESTR.CAVITY>
0

>  <SCORE.RESTR.norm>
0

>  <SCORE.SYSTEM>
0

>  <SCORE.SYSTEM.CONST>
0

>  <SCORE.SYSTEM.DIHEDRAL>
0

>  <SCORE.SYSTEM.norm>
0

>  <SCORE.heavy>
21

>  <SCORE.norm>
-1.11894

$$$$
design_12
 OpenBabel05252019093D

 25 27  0  0  0  0  0  0  0  0999 V2000
   39.6363  -46.6041    9.8475 N   0  0  0  0  0  0  0  0  0  0  0  0
   39.6321  -46.6134    8.4365 C   0  0  0  0  0  0  0  0  0  0  0  0
   38.8267  -47.3341    7.7929 O   0  0  0  0  0  0  0  0  0  0  0  0
   40.5873  -45.7646    7.6942 C   0  0  0  0  0  0  0  0  0  0  0  0
   41.9126  -45.1480    8.7925 S   0  0  0  0  0  0  0  0  0  0  0  0
   43.2191  -44.5360    7.7548 C   0  0  0  0  0  0  0  0  0  0  0  0
   44.2653  -45.3596    7.4458 C   0  0  0  0  0  0  0  0  0  0  0  0
   45.2819  -44.9180    6.6461 C   0  0  0  0  0  0  0  0  0  0  0  0
   45.2473  -43.6482    6.1568 C   0  0  0  0  0  0  0  0  0  0  0  0
   44.1657  -42.8163    6.4843 C   0  0  0  0  0  0  0  0  0  0  0  0
   43.1284  -43.2237    7.2829 C   0  0  0  0  0  0  0  0  0  0  0  0
   42.0316  -42.4463    7.6463 N   0  0  0  0  0  0  0  0  0  0  0  0
   41.5694  -41.2338    7.1109 C   0  0  0  0  0  0  0  0  0  0  0  0
   42.1673  -40.6945    6.1607 O   0  0  0  0  0  0  0  0  0  0  0  0
   40.3671  -40.5716    7.6609 C   0  0  0  0  0  0  0  0  0  0  0  0
   40.4188  -39.1071    7.8052 C   0  0  0  0  0  0  0  0  0  0  0  0
   40.2629  -38.4094    6.4751 C   0  0  0  0  0  0  0  0  0  0  0  0
   40.4493  -38.9251    5.2765 N   0  0  0  0  0  0  0  0  0  0  0  0
   40.2997  -38.1919    4.2061 C   0  0  0  0  0  0  0  0  0  0  0  0
   40.4706  -38.6360    2.8818 C   0  0  0  0  0  0  0  0  0  0  0  0
   40.2780  -37.7536    1.8543 C   0  0  0  0  0  0  0  0  0  0  0  0
   39.9228  -36.4366    2.0058 C   0  0  0  0  0  0  0  0  0  0  0  0
   39.7561  -36.0041    3.3050 C   0  0  0  0  0  0  0  0  0  0  0  0
   39.9459  -36.8834    4.3835 C   0  0  0  0  0  0  0  0  0  0  0  0
   39.8516  -36.7944    6.0860 S   0  0  0  0  0  0  0  0  0  0  0  0
  1  2  1  0  0  0  0
  2  3  2  0  0  0  0
  2  4  1  0  0  0  0
  4  5  1  0  0  0  0
  5  6  1  0  0  0  0
  6  7  2  0  0  0  0
  7  8  1  0  0  0  0
  8  9  2  0  0  0  0
  9 10  1  0  0  0  0
 10 11  2  0  0  0  0
 11 12  1  0  0  0  0
 11  6  1  0  0  0  0
 12 13  1  0  0  0  0
 13 14  2  0  0  0  0
 13 15  1  0  0  0  0
 15 16  1  0  0  0  0
 16 17  1  0  0  0  0
 17 18  2  0  0  0  0
 18 19  1  0  0  0  0
 19 20  2  0  0  0  0
 20 21  1  0  0  0  0
 21 22  2  0  0  0  0
 22 23  1  0  0  0  0
 23 24  2  0  0  0  0
 24 25  1  0  0  0  0
 24 19  1  0  0  0  0
 25 17  1  0  0  0  0
M  END
>  <CHROM.1>
14.43376603,164.69898104,-94.85484701,-165.58310635,139.01942757,75.72034485
-19.48180497,41.26867044,-41.55241225,6.46236338,1.38487818,-0.29312557,2.64567412

>  <Name>
design_12

>  <RI>
0

>  <Rbt.Current_Directory>
/home/ziqiaoxu/icml18-jtnn/VAEdesign

>  <Rbt.Executable>
rbdock ($Id: //depot/dev/client3/rdock/2013.1/src/exe/rbdock.cxx#4 $)

>  <Rbt.Library>
libRbt.so (2013.1, Build901 2013/11/27)

>  <Rbt.Parameter_File>
/export/apps/rDock/src/rDock_2013.1_src//data/scripts/dock.prm

>  <Rbt.Receptor>
/home/ziqiaoxu/icml18-jtnn/VAEdesign/targets/RdRp-SARS-CoV-2/pocket_docking.prm

>  <SCORE>
-21.4104

>  <SCORE.INTER>
-22.2569

>  <SCORE.INTER.CONST>
1

>  <SCORE.INTER.POLAR>
-2.35736

>  <SCORE.INTER.REPUL>
0.00341765

>  <SCORE.INTER.ROT>
7

>  <SCORE.INTER.VDW>
-26.6589

>  <SCORE.INTER.norm>
-0.890274

>  <SCORE.INTRA>
0.846476

>  <SCORE.INTRA.DIHEDRAL>
3.10721

>  <SCORE.INTRA.DIHEDRAL.0>
5.89467

>  <SCORE.INTRA.POLAR>
0

>  <SCORE.INTRA.POLAR.0>
0

>  <SCORE.INTRA.REPUL>
0

>  <SCORE.INTRA.REPUL.0>
0

>  <SCORE.INTRA.VDW>
-0.707131

>  <SCORE.INTRA.VDW.0>
-0.284229

>  <SCORE.INTRA.norm>
0.033859

>  <SCORE.RESTR>
0

>  <SCORE.RESTR.CAVITY>
0

>  <SCORE.RESTR.norm>
0

>  <SCORE.SYSTEM>
0

>  <SCORE.SYSTEM.CONST>
0

>  <SCORE.SYSTEM.DIHEDRAL>
0

>  <SCORE.SYSTEM.norm>
0

>  <SCORE.heavy>
25

>  <SCORE.norm>
-0.856415

$$$$
design_17
 OpenBabel05252019093D

 25 26  0  0  0  0  0  0  0  0999 V2000
   41.3165  -38.2046    1.7662 C   0  0  0  0  0  0  0  0  0  0  0  0
   42.1521  -39.2912    1.1930 C   0  0  0  0  0  0  0  0  0  0  0  0
   43.2510  -39.0316    0.4047 C   0  0  0  0  0  0  0  0  0  0  0  0
   44.0393  -40.0220   -0.1372 C   0  0  0  0  0  0  0  0  0  0  0  0
   45.2310  -39.7319   -0.9931 C   0  0  0  0  0  0  0  0  0  0  0  0
   43.6792  -41.3425    0.1461 C   0  0  0  0  0  0  0  0  0  0  0  0
   42.6010  -41.6604    0.9208 C   0  0  0  0  0  0  0  0  0  0  0  0
   42.2189  -43.0342    1.2210 C   0  0  0  0  0  0  0  0  0  0  0  0
   42.9646  -43.9988    0.8659 O   0  0  0  0  0  0  0  0  0  0  0  0
   41.0248  -43.3648    1.9083 N   0  0  0  0  0  0  0  0  0  0  0  0
   40.6101  -44.7115    2.2136 C   0  0  0  0  0  0  0  0  0  0  0  0
   40.3823  -44.9294    3.6757 C   0  0  0  0  0  0  0  0  0  0  0  0
   40.2177  -43.9026    4.3647 O   0  0  0  0  0  0  0  0  0  0  0  0
   40.3540  -46.2039    4.2422 N   0  0  0  0  0  0  0  0  0  0  0  0
   40.1572  -46.6042    5.5590 C   0  0  0  0  0  0  0  0  0  0  0  0
   39.5927  -47.8539    5.8534 C   0  0  0  0  0  0  0  0  0  0  0  0
   39.3691  -48.3033    7.1252 C   0  0  0  0  0  0  0  0  0  0  0  0
   39.7030  -47.5148    8.1951 C   0  0  0  0  0  0  0  0  0  0  0  0
   40.2560  -46.2884    7.9619 C   0  0  0  0  0  0  0  0  0  0  0  0
   40.6735  -45.3007    9.3440 S   0  0  0  0  0  0  0  0  0  0  0  0
   40.2366  -46.0255   10.8284 N   0  0  0  0  0  0  0  0  0  0  0  0
   42.1736  -45.1202    9.3256 O   0  0  0  0  0  0  0  0  0  0  0  0
   39.9811  -43.9635    9.2003 O   0  0  0  0  0  0  0  0  0  0  0  0
   40.4780  -45.8438    6.6542 C   0  0  0  0  0  0  0  0  0  0  0  0
   41.8494  -40.5984    1.4351 C   0  0  0  0  0  0  0  0  0  0  0  0
  1  2  1  0  0  0  0
  2  3  2  0  0  0  0
  3  4  1  0  0  0  0
  4  5  1  0  0  0  0
  4  6  2  0  0  0  0
  6  7  1  0  0  0  0
  7  8  1  0  0  0  0
  7 25  2  0  0  0  0
  8  9  2  0  0  0  0
  8 10  1  0  0  0  0
 10 11  1  0  0  0  0
 11 12  1  0  0  0  0
 12 13  2  0  0  0  0
 12 14  1  0  0  0  0
 14 15  1  0  0  0  0
 15 16  2  0  0  0  0
 16 17  1  0  0  0  0
 17 18  2  0  0  0  0
 18 19  1  0  0  0  0
 19 20  1  0  0  0  0
 19 24  2  0  0  0  0
 20 21  1  0  0  0  0
 20 22  2  0  0  0  0
 20 23  2  0  0  0  0
 24 15  1  0  0  0  0
 25  2  1  0  0  0  0
M  END
>  <CHROM.1>
6.67988212,123.32779602,18.72693294,151.67736752,-2.85745340,-79.82169360
41.33420501,-43.80998522,4.48573775,-0.56882764,1.24467102,1.21281010

>  <Name>
design_17

>  <RI>
0

>  <Rbt.Current_Directory>
/home/ziqiaoxu/icml18-jtnn/VAEdesign

>  <Rbt.Executable>
rbdock ($Id: //depot/dev/client3/rdock/2013.1/src/exe/rbdock.cxx#4 $)

>  <Rbt.Library>
libRbt.so (2013.1, Build901 2013/11/27)

>  <Rbt.Parameter_File>
/export/apps/rDock/src/rDock_2013.1_src//data/scripts/dock.prm

>  <Rbt.Receptor>
/home/ziqiaoxu/icml18-jtnn/VAEdesign/targets/RdRp-SARS-CoV-2/pocket_docking.prm

>  <SCORE>
-27.55

>  <SCORE.INTER>
-28.4386

>  <SCORE.INTER.CONST>
1

>  <SCORE.INTER.POLAR>
-3.88084

>  <SCORE.INTER.REPUL>
0

>  <SCORE.INTER.ROT>
6

>  <SCORE.INTER.VDW>
-26.6437

>  <SCORE.INTER.norm>
-1.13754

>  <SCORE.INTRA>
0.888548

>  <SCORE.INTRA.DIHEDRAL>
2.41673

>  <SCORE.INTRA.DIHEDRAL.0>
4.73809

>  <SCORE.INTRA.POLAR>
0

>  <SCORE.INTRA.POLAR.0>
0

>  <SCORE.INTRA.REPUL>
0

>  <SCORE.INTRA.REPUL.0>
0

>  <SCORE.INTRA.VDW>
-0.319817

>  <SCORE.INTRA.VDW.0>
-1.46982

>  <SCORE.INTRA.norm>
0.0355419

>  <SCORE.RESTR>
0

>  <SCORE.RESTR.CAVITY>
0

>  <SCORE.RESTR.norm>
0

>  <SCORE.SYSTEM>
0

>  <SCORE.SYSTEM.CONST>
0

>  <SCORE.SYSTEM.DIHEDRAL>
0

>  <SCORE.SYSTEM.norm>
0

>  <SCORE.heavy>
25

>  <SCORE.norm>
-1.102

$$$$
design_15
 OpenBabel05252019093D

 25 27  0  0  0  0  0  0  0  0999 V2000
   40.6420  -38.1359    1.5151 C   0  0  0  0  0  0  0  0  0  0  0  0
   40.4797  -38.8125    2.7940 N   0  0  0  0  0  0  0  0  0  0  0  0
   40.5326  -38.0452    3.9724 C   0  0  0  0  0  0  0  0  0  0  0  0
   40.7168  -36.8013    3.9096 O   0  0  0  0  0  0  0  0  0  0  0  0
   40.3750  -38.6843    5.2645 C   0  0  0  0  0  0  0  0  0  0  0  0
   40.3082  -37.9055    6.4063 C   0  0  0  0  0  0  0  0  0  0  0  0
   40.1571  -38.4687    7.6748 C   0  0  0  0  0  0  0  0  0  0  0  0
   40.0655  -39.8181    7.8621 C   0  0  0  0  0  0  0  0  0  0  0  0
   39.8848  -40.4973    9.0930 N   0  0  0  0  0  0  0  0  0  0  0  0
   40.0255  -41.8822    9.2375 C   0  0  0  0  0  0  0  0  0  0  0  0
   40.3295  -42.6163    8.2903 O   0  0  0  0  0  0  0  0  0  0  0  0
   39.7930  -42.4942   10.6162 C   0  0  0  0  0  0  0  0  0  0  0  0
   40.7535  -43.6665   10.7833 C   0  0  0  0  0  0  0  0  0  0  0  0
   40.2259  -44.8629   10.2048 N   0  0  0  0  0  0  0  0  0  0  0  0
   40.8511  -45.5039    9.0994 C   0  0  0  0  0  0  0  0  0  0  0  0
   42.0435  -45.0609    8.6817 N   0  0  0  0  0  0  0  0  0  0  0  0
   42.7495  -45.5623    7.6594 C   0  0  0  0  0  0  0  0  0  0  0  0
   42.1935  -46.5999    7.0106 N   0  0  0  0  0  0  0  0  0  0  0  0
   40.9743  -47.1041    7.3855 C   0  0  0  0  0  0  0  0  0  0  0  0
   39.9795  -48.3708    6.8233 S   0  0  0  0  0  0  0  0  0  0  0  0
   38.6846  -48.2194    7.9189 C   0  0  0  0  0  0  0  0  0  0  0  0
   39.0725  -47.1647    8.7073 C   0  0  0  0  0  0  0  0  0  0  0  0
   40.2557  -46.5911    8.4290 C   0  0  0  0  0  0  0  0  0  0  0  0
   40.1351  -40.6091    6.6887 C   0  0  0  0  0  0  0  0  0  0  0  0
   40.2841  -40.0436    5.4500 C   0  0  0  0  0  0  0  0  0  0  0  0
  1  2  1  0  0  0  0
  2  3  1  0  0  0  0
  3  4  2  0  0  0  0
  3  5  1  0  0  0  0
  5  6  2  0  0  0  0
  6  7  1  0  0  0  0
  7  8  2  0  0  0  0
  8  9  1  0  0  0  0
  8 24  1  0  0  0  0
  9 10  1  0  0  0  0
 10 11  2  0  0  0  0
 10 12  1  0  0  0  0
 12 13  1  0  0  0  0
 13 14  1  0  0  0  0
 14 15  1  0  0  0  0
 15 16  2  0  0  0  0
 16 17  1  0  0  0  0
 17 18  2  0  0  0  0
 18 19  1  0  0  0  0
 19 20  1  0  0  0  0
 20 21  1  0  0  0  0
 21 22  2  0  0  0  0
 22 23  1  0  0  0  0
 23 15  1  0  0  0  0
 23 19  2  0  0  0  0
 24 25  2  0  0  0  0
 25  5  1  0  0  0  0
M  END
>  <CHROM.1>
-174.19879802,-168.78502164,-145.30772364,-84.29533065,115.84434994,7.46457520
40.43725719,-42.78559773,7.21055427,-1.51027040,-1.49690618,2.80443336

>  <Name>
design_15

>  <RI>
0

>  <Rbt.Current_Directory>
/home/ziqiaoxu/icml18-jtnn/VAEdesign

>  <Rbt.Executable>
rbdock ($Id: //depot/dev/client3/rdock/2013.1/src/exe/rbdock.cxx#4 $)

>  <Rbt.Library>
libRbt.so (2013.1, Build901 2013/11/27)

>  <Rbt.Parameter_File>
/export/apps/rDock/src/rDock_2013.1_src//data/scripts/dock.prm

>  <Rbt.Receptor>
/home/ziqiaoxu/icml18-jtnn/VAEdesign/targets/RdRp-SARS-CoV-2/pocket_docking.prm

>  <SCORE>
-24.7186

>  <SCORE.INTER>
-25.4468

>  <SCORE.INTER.CONST>
1

>  <SCORE.INTER.POLAR>
-3.02849

>  <SCORE.INTER.REPUL>
0.0183368

>  <SCORE.INTER.ROT>
6

>  <SCORE.INTER.VDW>
-26.6416

>  <SCORE.INTER.norm>
-1.01787

>  <SCORE.INTRA>
0.72812

>  <SCORE.INTRA.DIHEDRAL>
2.02185

>  <SCORE.INTRA.DIHEDRAL.0>
5.34299

>  <SCORE.INTRA.POLAR>
0

>  <SCORE.INTRA.POLAR.0>
0

>  <SCORE.INTRA.REPUL>
0

>  <SCORE.INTRA.REPUL.0>
0

>  <SCORE.INTRA.VDW>
-0.282805

>  <SCORE.INTRA.VDW.0>
1.03995

>  <SCORE.INTRA.norm>
0.0291248

>  <SCORE.RESTR>
0

>  <SCORE.RESTR.CAVITY>
0

>  <SCORE.RESTR.norm>
0

>  <SCORE.SYSTEM>
0

>  <SCORE.SYSTEM.CONST>
0

>  <SCORE.SYSTEM.DIHEDRAL>
0

>  <SCORE.SYSTEM.norm>
0

>  <SCORE.heavy>
25

>  <SCORE.norm>
-0.988746

$$$$
design_12
 OpenBabel05252019093D

 23 24  0  0  0  0  0  0  0  0999 V2000
   38.8204  -48.3750    7.8381 C   0  0  0  0  0  0  0  0  0  0  0  0
   38.3893  -47.0528    8.4454 C   0  0  0  0  0  0  0  0  0  0  0  0
   37.4968  -46.3143    7.4977 C   0  0  0  0  0  0  0  0  0  0  0  0
   39.4269  -46.3176    9.0477 N   0  0  0  0  0  0  0  0  0  0  0  0
   40.4028  -45.6188    9.6287 C   0  0  0  0  0  0  0  0  0  0  0  0
   40.4232  -45.0384   10.7671 O   0  0  0  0  0  0  0  0  0  0  0  0
   41.7367  -45.4031    8.9253 C   0  0  0  0  0  0  0  0  0  0  0  0
   42.6611  -44.5485    9.4322 C   0  0  0  0  0  0  0  0  0  0  0  0
   43.8523  -44.3071    8.7306 C   0  0  0  0  0  0  0  0  0  0  0  0
   44.1245  -44.9079    7.5373 C   0  0  0  0  0  0  0  0  0  0  0  0
   45.2187  -44.5867    6.6704 C   0  0  0  0  0  0  0  0  0  0  0  0
   45.6628  -45.4076    5.6261 N   0  0  0  0  0  0  0  0  0  0  0  0
   45.9630  -45.1998    4.2572 C   0  0  0  0  0  0  0  0  0  0  0  0
   45.8862  -44.1196    3.6679 O   0  0  0  0  0  0  0  0  0  0  0  0
   46.3922  -46.3491    3.5408 N   0  0  0  0  0  0  0  0  0  0  0  0
   46.8706  -46.1857    2.1717 C   0  0  0  0  0  0  0  0  0  0  0  0
   45.7204  -46.2347    1.1988 C   0  0  0  0  0  0  0  0  0  0  0  0
   44.4849  -45.8119    1.5386 C   0  0  0  0  0  0  0  0  0  0  0  0
   43.5964  -46.0879    0.1072 S   0  0  0  0  0  0  0  0  0  0  0  0
   44.8683  -46.7306   -0.8468 C   0  0  0  0  0  0  0  0  0  0  0  0
   45.8912  -46.6974   -0.0262 N   0  0  0  0  0  0  0  0  0  0  0  0
   43.1447  -45.7978    7.0356 C   0  0  0  0  0  0  0  0  0  0  0  0
   41.9780  -46.0352    7.7248 C   0  0  0  0  0  0  0  0  0  0  0  0
  1  2  1  0  0  0  0
  2  3  1  0  0  0  0
  2  4  1  0  0  0  0
  4  5  1  0  0  0  0
  5  6  2  0  0  0  0
  5  7  1  0  0  0  0
  7  8  2  0  0  0  0
  8  9  1  0  0  0  0
  9 10  2  0  0  0  0
 10 11  1  0  0  0  0
 10 22  1  0  0  0  0
 11 12  1  0  0  0  0
 12 13  1  0  0  0  0
 13 14  2  0  0  0  0
 13 15  1  0  0  0  0
 15 16  1  0  0  0  0
 16 17  1  0  0  0  0
 17 18  2  0  0  0  0
 18 19  1  0  0  0  0
 19 20  1  0  0  0  0
 20 21  2  0  0  0  0
 21 17  1  0  0  0  0
 22 23  2  0  0  0  0
 23  7  1  0  0  0  0
M  END
>  <CHROM.1>
-133.98570400,171.13637749,164.15543734,130.81072119,-86.64119040,30.45154458
43.16599443,-45.81724278,5.38606693,2.18900311,0.31991661,1.33926758

>  <Name>
design_12

>  <RI>
0

>  <Rbt.Current_Directory>
/home/ziqiaoxu/icml18-jtnn/VAEdesign

>  <Rbt.Executable>
rbdock ($Id: //depot/dev/client3/rdock/2013.1/src/exe/rbdock.cxx#4 $)

>  <Rbt.Library>
libRbt.so (2013.1, Build901 2013/11/27)

>  <Rbt.Parameter_File>
/export/apps/rDock/src/rDock_2013.1_src//data/scripts/dock.prm

>  <Rbt.Receptor>
/home/ziqiaoxu/icml18-jtnn/VAEdesign/targets/RdRp-SARS-CoV-2/pocket_docking.prm

>  <SCORE>
-24.7625

>  <SCORE.INTER>
-21.7496

>  <SCORE.INTER.CONST>
1

>  <SCORE.INTER.POLAR>
-1.91423

>  <SCORE.INTER.REPUL>
0

>  <SCORE.INTER.ROT>
6

>  <SCORE.INTER.VDW>
-26.6412

>  <SCORE.INTER.norm>
-0.945633

>  <SCORE.INTRA>
-3.0129

>  <SCORE.INTRA.DIHEDRAL>
-3.03976

>  <SCORE.INTRA.DIHEDRAL.0>
9.85047

>  <SCORE.INTRA.POLAR>
0

>  <SCORE.INTRA.POLAR.0>
0

>  <SCORE.INTRA.REPUL>
0

>  <SCORE.INTRA.REPUL.0>
0

>  <SCORE.INTRA.VDW>
-1.49302

>  <SCORE.INTRA.VDW.0>
0.133225

>  <SCORE.INTRA.norm>
-0.130996

>  <SCORE.RESTR>
0

>  <SCORE.RESTR.CAVITY>
0

>  <SCORE.RESTR.norm>
0

>  <SCORE.SYSTEM>
0

>  <SCORE.SYSTEM.CONST>
0

>  <SCORE.SYSTEM.DIHEDRAL>
0

>  <SCORE.SYSTEM.norm>
0

>  <SCORE.heavy>
23

>  <SCORE.norm>
-1.07663

$$$$
design_14
 OpenBabel05252019093D

 23 24  0  0  0  0  0  0  0  0999 V2000
   40.5901  -37.9238    7.4937 C   0  0  0  0  0  0  0  0  0  0  0  0
   40.6349  -39.4300    7.6641 C   0  0  0  0  0  0  0  0  0  0  0  0
   41.1694  -40.0615    6.7469 O   0  0  0  0  0  0  0  0  0  0  0  0
   40.0745  -39.9555    8.8277 N   0  0  0  0  0  0  0  0  0  0  0  0
   40.0403  -41.3253    9.1392 C   0  0  0  0  0  0  0  0  0  0  0  0
   39.3674  -41.8742   10.2032 C   0  0  0  0  0  0  0  0  0  0  0  0
   39.4038  -43.2433   10.4488 C   0  0  0  0  0  0  0  0  0  0  0  0
   40.1006  -44.1290    9.6610 C   0  0  0  0  0  0  0  0  0  0  0  0
   40.1338  -45.8826    9.9943 S   0  0  0  0  0  0  0  0  0  0  0  0
   38.6265  -46.6009    9.2851 C   0  0  0  0  0  0  0  0  0  0  0  0
   38.6064  -46.4830    7.8179 C   0  0  0  0  0  0  0  0  0  0  0  0
   39.6944  -46.5555    7.1956 O   0  0  0  0  0  0  0  0  0  0  0  0
   37.3703  -46.2926    7.1528 N   0  0  0  0  0  0  0  0  0  0  0  0
   37.2550  -46.1681    5.7255 C   0  0  0  0  0  0  0  0  0  0  0  0
   36.3799  -45.0531    5.2731 C   0  0  0  0  0  0  0  0  0  0  0  0
   36.7572  -43.7182    5.7366 C   0  0  0  0  0  0  0  0  0  0  0  0
   35.7334  -42.7983    5.9941 C   0  0  0  0  0  0  0  0  0  0  0  0
   36.0152  -41.5385    6.4390 C   0  0  0  0  0  0  0  0  0  0  0  0
   37.3238  -41.1763    6.6342 C   0  0  0  0  0  0  0  0  0  0  0  0
   38.3327  -42.0848    6.3799 C   0  0  0  0  0  0  0  0  0  0  0  0
   38.0581  -43.3748    5.9252 C   0  0  0  0  0  0  0  0  0  0  0  0
   40.7719  -43.5713    8.5962 C   0  0  0  0  0  0  0  0  0  0  0  0
   40.7582  -42.2283    8.3250 C   0  0  0  0  0  0  0  0  0  0  0  0
  1  2  1  0  0  0  0
  2  3  2  0  0  0  0
  2  4  1  0  0  0  0
  4  5  1  0  0  0  0
  5  6  2  0  0  0  0
  6  7  1  0  0  0  0
  7  8  2  0  0  0  0
  8  9  1  0  0  0  0
  8 22  1  0  0  0  0
  9 10  1  0  0  0  0
 10 11  1  0  0  0  0
 11 12  2  0  0  0  0
 11 13  1  0  0  0  0
 13 14  1  0  0  0  0
 14 15  1  0  0  0  0
 15 16  1  0  0  0  0
 16 17  2  0  0  0  0
 17 18  1  0  0  0  0
 18 19  2  0  0  0  0
 19 20  1  0  0  0  0
 20 21  2  0  0  0  0
 21 16  1  0  0  0  0
 22 23  2  0  0  0  0
 23  5  1  0  0  0  0
M  END
>  <CHROM.1>
-172.48162126,82.66949276,64.90195350,33.64047524,-134.10096301,57.78594431
-146.39531095,38.92528404,-43.26556327,7.79524340,1.15027216,-0.78232377
-0.25964686

>  <Name>
design_14

>  <RI>
0

>  <Rbt.Current_Directory>
/home/ziqiaoxu/icml18-jtnn/VAEdesign

>  <Rbt.Executable>
rbdock ($Id: //depot/dev/client3/rdock/2013.1/src/exe/rbdock.cxx#4 $)

>  <Rbt.Library>
libRbt.so (2013.1, Build901 2013/11/27)

>  <Rbt.Parameter_File>
/export/apps/rDock/src/rDock_2013.1_src//data/scripts/dock.prm

>  <Rbt.Receptor>
/home/ziqiaoxu/icml18-jtnn/VAEdesign/targets/RdRp-SARS-CoV-2/pocket_docking.prm

>  <SCORE>
-20.1374

>  <SCORE.INTER>
-17.4673

>  <SCORE.INTER.CONST>
1

>  <SCORE.INTER.POLAR>
-0.94903

>  <SCORE.INTER.REPUL>
0

>  <SCORE.INTER.ROT>
7

>  <SCORE.INTER.VDW>
-26.6406

>  <SCORE.INTER.norm>
-0.759447

>  <SCORE.INTRA>
-2.67012

>  <SCORE.INTRA.DIHEDRAL>
-0.728525

>  <SCORE.INTRA.DIHEDRAL.0>
6.29162

>  <SCORE.INTRA.POLAR>
0

>  <SCORE.INTRA.POLAR.0>
0

>  <SCORE.INTRA.REPUL>
0

>  <SCORE.INTRA.REPUL.0>
0

>  <SCORE.INTRA.VDW>
-2.30586

>  <SCORE.INTRA.VDW.0>
-0.490754

>  <SCORE.INTRA.norm>
-0.116092

>  <SCORE.RESTR>
0

>  <SCORE.RESTR.CAVITY>
0

>  <SCORE.RESTR.norm>
0

>  <SCORE.SYSTEM>
0

>  <SCORE.SYSTEM.CONST>
0

>  <SCORE.SYSTEM.DIHEDRAL>
0

>  <SCORE.SYSTEM.norm>
0

>  <SCORE.heavy>
23

>  <SCORE.norm>
-0.875539

$$$$
design_1
 OpenBabel05252019093D

 25 27  0  0  0  0  0  0  0  0999 V2000
   41.7460  -44.1185   10.1489 O   0  0  0  0  0  0  0  0  0  0  0  0
   42.4785  -44.6509    9.2812 C   0  0  0  0  0  0  0  0  0  0  0  0
   43.8771  -44.2742    9.0686 C   0  0  0  0  0  0  0  0  0  0  0  0
   44.6802  -45.0101    8.1657 N   0  0  0  0  0  0  0  0  0  0  0  0
   44.4613  -44.6603    6.7394 C   0  0  0  0  0  0  0  0  0  0  0  0
   43.5794  -43.8703    6.4593 O   0  0  0  0  0  0  0  0  0  0  0  0
   45.3025  -45.2489    5.7479 N   0  0  0  0  0  0  0  0  0  0  0  0
   44.9466  -44.9225    4.3400 C   0  0  0  0  0  0  0  0  0  0  0  0
   45.6155  -45.8008    3.3666 C   0  0  0  0  0  0  0  0  0  0  0  0
   46.8475  -46.3378    3.7625 C   0  0  0  0  0  0  0  0  0  0  0  0
   47.6137  -46.9767    2.8190 C   0  0  0  0  0  0  0  0  0  0  0  0
   47.2169  -47.1169    1.5059 C   0  0  0  0  0  0  0  0  0  0  0  0
   45.9959  -46.5915    1.0883 C   0  0  0  0  0  0  0  0  0  0  0  0
   45.5396  -46.7336   -0.2134 C   0  0  0  0  0  0  0  0  0  0  0  0
   44.3170  -46.2408   -0.5663 C   0  0  0  0  0  0  0  0  0  0  0  0
   43.5658  -45.5996    0.4182 C   0  0  0  0  0  0  0  0  0  0  0  0
   44.0456  -45.4769    1.6715 N   0  0  0  0  0  0  0  0  0  0  0  0
   45.2504  -45.9547    2.0500 C   0  0  0  0  0  0  0  0  0  0  0  0
   41.9461  -45.6678    8.4486 N   0  0  0  0  0  0  0  0  0  0  0  0
   40.6782  -46.2627    8.3384 C   0  0  0  0  0  0  0  0  0  0  0  0
   39.7328  -45.8936    9.3319 C   0  0  0  0  0  0  0  0  0  0  0  0
   38.5166  -46.5098    9.3681 C   0  0  0  0  0  0  0  0  0  0  0  0
   38.2075  -47.4801    8.4526 C   0  0  0  0  0  0  0  0  0  0  0  0
   39.1243  -47.8397    7.4776 C   0  0  0  0  0  0  0  0  0  0  0  0
   40.3713  -47.2100    7.4368 C   0  0  0  0  0  0  0  0  0  0  0  0
  1  2  2  0  0  0  0
  2  3  1  0  0  0  0
  2 19  1  0  0  0  0
  3  4  1  0  0  0  0
  4  5  1  0  0  0  0
  5  6  2  0  0  0  0
  5  7  1  0  0  0  0
  7  8  1  0  0  0  0
  8  9  1  0  0  0  0
  9 10  2  0  0  0  0
 10 11  1  0  0  0  0
 11 12  2  0  0  0  0
 12 13  1  0  0  0  0
 13 14  2  0  0  0  0
 14 15  1  0  0  0  0
 15 16  2  0  0  0  0
 16 17  1  0  0  0  0
 17 18  2  0  0  0  0
 18  9  1  0  0  0  0
 18 13  1  0  0  0  0
 19 20  1  0  0  0  0
 20 21  2  0  0  0  0
 21 22  1  0  0  0  0
 22 23  2  0  0  0  0
 23 24  1  0  0  0  0
 24 25  2  0  0  0  0
 25 20  1  0  0  0  0
M  END
>  <CHROM.1>
173.57040067,79.45880894,-165.74353904,-27.82329853,-7.34771515,43.42501331
-45.81503604,5.47777923,-2.20784048,-0.32966216,-1.85699444

>  <Name>
design_1

>  <RI>
0

>  <Rbt.Current_Directory>
/home/ziqiaoxu/icml18-jtnn/VAEdesign

>  <Rbt.Executable>
rbdock ($Id: //depot/dev/client3/rdock/2013.1/src/exe/rbdock.cxx#4 $)

>  <Rbt.Library>
libRbt.so (2013.1, Build901 2013/11/27)

>  <Rbt.Parameter_File>
/export/apps/rDock/src/rDock_2013.1_src//data/scripts/dock.prm

>  <Rbt.Receptor>
/home/ziqiaoxu/icml18-jtnn/VAEdesign/targets/RdRp-SARS-CoV-2/pocket_docking.prm

>  <SCORE>
-23.7469

>  <SCORE.INTER>
-21.8105

>  <SCORE.INTER.CONST>
1

>  <SCORE.INTER.POLAR>
-1.63862

>  <SCORE.INTER.REPUL>
0

>  <SCORE.INTER.ROT>
5

>  <SCORE.INTER.VDW>
-26.6392

>  <SCORE.INTER.norm>
-0.872421

>  <SCORE.INTRA>
-1.93637

>  <SCORE.INTRA.DIHEDRAL>
-6.71452

>  <SCORE.INTRA.DIHEDRAL.0>
11.5004

>  <SCORE.INTRA.POLAR>
0

>  <SCORE.INTRA.POLAR.0>
0

>  <SCORE.INTRA.REPUL>
0

>  <SCORE.INTRA.REPUL.0>
0

>  <SCORE.INTRA.VDW>
1.42089

>  <SCORE.INTRA.VDW.0>
-1.7953

>  <SCORE.INTRA.norm>
-0.0774548

>  <SCORE.RESTR>
0

>  <SCORE.RESTR.CAVITY>
0

>  <SCORE.RESTR.norm>
0

>  <SCORE.SYSTEM>
0

>  <SCORE.SYSTEM.CONST>
0

>  <SCORE.SYSTEM.DIHEDRAL>
0

>  <SCORE.SYSTEM.norm>
0

>  <SCORE.heavy>
25

>  <SCORE.norm>
-0.949876

$$$$
design_14
 OpenBabel05252019093D

 27 30  0  0  0  0  0  0  0  0999 V2000
   44.2907  -46.5653   -0.4995 N   0  0  0  0  0  0  0  0  0  0  0  0
   44.9165  -46.2269    0.7688 C   0  0  0  0  0  0  0  0  0  0  0  0
   44.1913  -45.5929    1.5363 O   0  0  0  0  0  0  0  0  0  0  0  0
   46.2648  -46.6686    0.9500 C   0  0  0  0  0  0  0  0  0  0  0  0
   46.9113  -47.3489   -0.0941 C   0  0  0  0  0  0  0  0  0  0  0  0
   48.2037  -47.7766   -0.0307 C   0  0  0  0  0  0  0  0  0  0  0  0
   48.9552  -47.5561    1.0889 C   0  0  0  0  0  0  0  0  0  0  0  0
   48.3337  -46.8838    2.1378 C   0  0  0  0  0  0  0  0  0  0  0  0
   47.0205  -46.4345    2.1079 C   0  0  0  0  0  0  0  0  0  0  0  0
   46.4433  -45.8092    3.2327 N   0  0  0  0  0  0  0  0  0  0  0  0
   47.1170  -45.2677    4.3410 C   0  0  0  0  0  0  0  0  0  0  0  0
   48.3483  -45.2271    4.5468 O   0  0  0  0  0  0  0  0  0  0  0  0
   46.2513  -44.6487    5.4379 C   0  0  0  0  0  0  0  0  0  0  0  0
   45.2136  -45.5282    5.7136 O   0  0  0  0  0  0  0  0  0  0  0  0
   44.2991  -45.3914    6.7305 C   0  0  0  0  0  0  0  0  0  0  0  0
   44.5797  -44.6402    7.8544 C   0  0  0  0  0  0  0  0  0  0  0  0
   43.6407  -44.5243    8.8541 C   0  0  0  0  0  0  0  0  0  0  0  0
   42.4011  -45.1541    8.7567 C   0  0  0  0  0  0  0  0  0  0  0  0
   41.3633  -45.1983    9.5498 O   0  0  0  0  0  0  0  0  0  0  0  0
   40.4216  -45.9445    8.9912 C   0  0  0  0  0  0  0  0  0  0  0  0
   40.8767  -46.3941    7.7943 C   0  0  0  0  0  0  0  0  0  0  0  0
   42.1597  -45.8950    7.6184 C   0  0  0  0  0  0  0  0  0  0  0  0
   43.0790  -46.0283    6.6039 C   0  0  0  0  0  0  0  0  0  0  0  0
   40.0502  -47.2532    6.9345 C   0  0  0  0  0  0  0  0  0  0  0  0
   39.1937  -48.1274    7.8232 C   0  0  0  0  0  0  0  0  0  0  0  0
   38.2993  -47.1505    8.5922 C   0  0  0  0  0  0  0  0  0  0  0  0
   39.0859  -46.2815    9.5048 C   0  0  0  0  0  0  0  0  0  0  0  0
  1  2  1  0  0  0  0
  2  3  2  0  0  0  0
  2  4  1  0  0  0  0
  4  5  2  0  0  0  0
  5  6  1  0  0  0  0
  6  7  2  0  0  0  0
  7  8  1  0  0  0  0
  8  9  2  0  0  0  0
  9 10  1  0  0  0  0
  9  4  1  0  0  0  0
 10 11  1  0  0  0  0
 11 12  2  0  0  0  0
 11 13  1  0  0  0  0
 13 14  1  0  0  0  0
 14 15  1  0  0  0  0
 15 16  2  0  0  0  0
 16 17  1  0  0  0  0
 17 18  2  0  0  0  0
 18 19  1  0  0  0  0
 19 20  1  0  0  0  0
 20 21  2  0  0  0  0
 21 22  1  0  0  0  0
 21 24  1  0  0  0  0
 22 23  2  0  0  0  0
 22 18  1  0  0  0  0
 23 15  1  0  0  0  0
 24 25  1  0  0  0  0
 25 26  1  0  0  0  0
 26 27  1  0  0  0  0
 27 20  1  0  0  0  0
M  END
>  <CHROM.1>
2.02773841,-166.05531853,46.42168622,173.22232771,-23.23874678,44.13104065
-46.12097940,5.04814721,0.80744452,-0.27930331,-1.88424764

>  <Name>
design_14

>  <RI>
0

>  <Rbt.Current_Directory>
/home/ziqiaoxu/icml18-jtnn/VAEdesign

>  <Rbt.Executable>
rbdock ($Id: //depot/dev/client3/rdock/2013.1/src/exe/rbdock.cxx#4 $)

>  <Rbt.Library>
libRbt.so (2013.1, Build901 2013/11/27)

>  <Rbt.Parameter_File>
/export/apps/rDock/src/rDock_2013.1_src//data/scripts/dock.prm

>  <Rbt.Receptor>
/home/ziqiaoxu/icml18-jtnn/VAEdesign/targets/RdRp-SARS-CoV-2/pocket_docking.prm

>  <SCORE>
-19.5292

>  <SCORE.INTER>
-19.2996

>  <SCORE.INTER.CONST>
1

>  <SCORE.INTER.POLAR>
-0.957206

>  <SCORE.INTER.REPUL>
0.0378793

>  <SCORE.INTER.ROT>
5

>  <SCORE.INTER.VDW>
-26.6345

>  <SCORE.INTER.norm>
-0.714801

>  <SCORE.INTRA>
-0.229598

>  <SCORE.INTRA.DIHEDRAL>
1.35542

>  <SCORE.INTRA.DIHEDRAL.0>
1.95587

>  <SCORE.INTRA.POLAR>
0

>  <SCORE.INTRA.POLAR.0>
0

>  <SCORE.INTRA.REPUL>
0

>  <SCORE.INTRA.REPUL.0>
0

>  <SCORE.INTRA.VDW>
-0.90731

>  <SCORE.INTRA.VDW.0>
0.340705

>  <SCORE.INTRA.norm>
-0.00850362

>  <SCORE.RESTR>
0

>  <SCORE.RESTR.CAVITY>
0

>  <SCORE.RESTR.norm>
0

>  <SCORE.SYSTEM>
0

>  <SCORE.SYSTEM.CONST>
0

>  <SCORE.SYSTEM.DIHEDRAL>
0

>  <SCORE.SYSTEM.norm>
0

>  <SCORE.heavy>
27

>  <SCORE.norm>
-0.723305

$$$$
design_3
 OpenBabel05252019093D

 25 27  0  0  0  0  0  0  0  0999 V2000
   43.9530  -46.4827   -0.4343 C   0  0  0  0  0  0  0  0  0  0  0  0
   45.1603  -45.7908   -0.2155 O   0  0  0  0  0  0  0  0  0  0  0  0
   46.0764  -46.3050    0.7192 C   0  0  0  0  0  0  0  0  0  0  0  0
   47.0644  -47.1783    0.3065 C   0  0  0  0  0  0  0  0  0  0  0  0
   47.9592  -47.6804    1.2193 C   0  0  0  0  0  0  0  0  0  0  0  0
   47.8478  -47.2939    2.5501 C   0  0  0  0  0  0  0  0  0  0  0  0
   46.8822  -46.4377    2.9676 C   0  0  0  0  0  0  0  0  0  0  0  0
   46.7334  -46.0343    4.3192 N   0  0  0  0  0  0  0  0  0  0  0  0
   45.6297  -45.4566    4.9285 C   0  0  0  0  0  0  0  0  0  0  0  0
   44.5500  -45.1858    4.3641 O   0  0  0  0  0  0  0  0  0  0  0  0
   45.6642  -45.0974    6.3980 C   0  0  0  0  0  0  0  0  0  0  0  0
   44.5524  -44.1828    6.7864 C   0  0  0  0  0  0  0  0  0  0  0  0
   43.3038  -44.9003    7.0581 N   0  0  0  0  0  0  0  0  0  0  0  0
   42.6871  -44.8363    8.3184 C   0  0  0  0  0  0  0  0  0  0  0  0
   43.2342  -44.1426    9.2603 O   0  0  0  0  0  0  0  0  0  0  0  0
   41.4521  -45.4953    8.6986 C   0  0  0  0  0  0  0  0  0  0  0  0
   40.7586  -45.3078    9.8951 C   0  0  0  0  0  0  0  0  0  0  0  0
   39.7007  -46.1100    9.9308 N   0  0  0  0  0  0  0  0  0  0  0  0
   39.6706  -46.8242    8.7920 C   0  0  0  0  0  0  0  0  0  0  0  0
   38.7536  -47.7779    8.3728 C   0  0  0  0  0  0  0  0  0  0  0  0
   38.9061  -48.3866    7.1446 C   0  0  0  0  0  0  0  0  0  0  0  0
   39.9714  -48.0338    6.3527 C   0  0  0  0  0  0  0  0  0  0  0  0
   40.8655  -47.0827    6.7980 C   0  0  0  0  0  0  0  0  0  0  0  0
   40.7550  -46.4550    8.0083 C   0  0  0  0  0  0  0  0  0  0  0  0
   45.9856  -45.9385    2.0341 C   0  0  0  0  0  0  0  0  0  0  0  0
  1  2  1  0  0  0  0
  2  3  1  0  0  0  0
  3  4  2  0  0  0  0
  4  5  1  0  0  0  0
  5  6  2  0  0  0  0
  6  7  1  0  0  0  0
  7  8  1  0  0  0  0
  7 25  2  0  0  0  0
  8  9  1  0  0  0  0
  9 10  2  0  0  0  0
  9 11  1  0  0  0  0
 11 12  1  0  0  0  0
 12 13  1  0  0  0  0
 13 14  1  0  0  0  0
 14 15  2  0  0  0  0
 14 16  1  0  0  0  0
 16 17  2  0  0  0  0
 17 18  1  0  0  0  0
 18 19  1  0  0  0  0
 19 20  2  0  0  0  0
 20 21  1  0  0  0  0
 21 22  2  0  0  0  0
 22 23  1  0  0  0  0
 23 24  2  0  0  0  0
 24 16  1  0  0  0  0
 24 19  1  0  0  0  0
 25  3  1  0  0  0  0
M  END
>  <CHROM.1>
91.18669789,-162.27335291,165.11008951,83.14932633,119.62494633,-171.98199618
43.55653652,-46.13707520,5.34939634,0.81432410,-0.39604182,-1.94629756

>  <Name>
design_3

>  <RI>
0

>  <Rbt.Current_Directory>
/home/ziqiaoxu/icml18-jtnn/VAEdesign

>  <Rbt.Executable>
rbdock ($Id: //depot/dev/client3/rdock/2013.1/src/exe/rbdock.cxx#4 $)

>  <Rbt.Library>
libRbt.so (2013.1, Build901 2013/11/27)

>  <Rbt.Parameter_File>
/export/apps/rDock/src/rDock_2013.1_src//data/scripts/dock.prm

>  <Rbt.Receptor>
/home/ziqiaoxu/icml18-jtnn/VAEdesign/targets/RdRp-SARS-CoV-2/pocket_docking.prm

>  <SCORE>
-20.3371

>  <SCORE.INTER>
-19.8172

>  <SCORE.INTER.CONST>
1

>  <SCORE.INTER.POLAR>
-1.3487

>  <SCORE.INTER.REPUL>
0

>  <SCORE.INTER.ROT>
6

>  <SCORE.INTER.VDW>
-26.6316

>  <SCORE.INTER.norm>
-0.792687

>  <SCORE.INTRA>
-0.519923

>  <SCORE.INTRA.DIHEDRAL>
5.68411

>  <SCORE.INTRA.DIHEDRAL.0>
4.89549

>  <SCORE.INTRA.POLAR>
0

>  <SCORE.INTRA.POLAR.0>
0

>  <SCORE.INTRA.REPUL>
0

>  <SCORE.INTRA.REPUL.0>
0

>  <SCORE.INTRA.VDW>
-3.36198

>  <SCORE.INTRA.VDW.0>
3.70892

>  <SCORE.INTRA.norm>
-0.0207969

>  <SCORE.RESTR>
0

>  <SCORE.RESTR.CAVITY>
0

>  <SCORE.RESTR.norm>
0

>  <SCORE.SYSTEM>
0

>  <SCORE.SYSTEM.CONST>
0

>  <SCORE.SYSTEM.DIHEDRAL>
0

>  <SCORE.SYSTEM.norm>
0

>  <SCORE.heavy>
25

>  <SCORE.norm>
-0.813484

$$$$
design_15
 OpenBabel05252019093D

 24 26  0  0  0  0  0  0  0  0999 V2000
   40.1384  -47.6053    6.9380 C   0  0  0  0  0  0  0  0  0  0  0  0
   40.6512  -46.6487    7.9736 C   0  0  0  0  0  0  0  0  0  0  0  0
   39.8725  -46.3505    9.0646 C   0  0  0  0  0  0  0  0  0  0  0  0
   40.3025  -45.4561   10.0187 C   0  0  0  0  0  0  0  0  0  0  0  0
   41.5432  -44.8574    9.8658 C   0  0  0  0  0  0  0  0  0  0  0  0
   42.3426  -45.1411    8.7805 C   0  0  0  0  0  0  0  0  0  0  0  0
   43.5862  -44.3642    8.5787 C   0  0  0  0  0  0  0  0  0  0  0  0
   44.5859  -45.0454    7.7854 N   0  0  0  0  0  0  0  0  0  0  0  0
   44.5138  -44.8864    6.3762 C   0  0  0  0  0  0  0  0  0  0  0  0
   43.6223  -44.1526    5.8887 O   0  0  0  0  0  0  0  0  0  0  0  0
   45.4085  -45.4978    5.4570 N   0  0  0  0  0  0  0  0  0  0  0  0
   45.4471  -45.2247    4.0378 C   0  0  0  0  0  0  0  0  0  0  0  0
   46.4875  -46.1259    3.3715 C   0  0  0  0  0  0  0  0  0  0  0  0
   47.6481  -46.3929    4.0424 C   0  0  0  0  0  0  0  0  0  0  0  0
   48.6054  -47.2244    3.4106 C   0  0  0  0  0  0  0  0  0  0  0  0
   48.3563  -47.7376    2.1621 C   0  0  0  0  0  0  0  0  0  0  0  0
   47.1529  -47.4293    1.5322 C   0  0  0  0  0  0  0  0  0  0  0  0
   46.1851  -46.6121    2.1245 C   0  0  0  0  0  0  0  0  0  0  0  0
   44.9629  -46.3349    1.4640 N   0  0  0  0  0  0  0  0  0  0  0  0
   44.7942  -46.4908    0.1372 C   0  0  0  0  0  0  0  0  0  0  0  0
   43.5054  -46.1313   -0.2131 C   0  0  0  0  0  0  0  0  0  0  0  0
   42.9157  -45.7649    0.8998 N   0  0  0  0  0  0  0  0  0  0  0  0
   43.8004  -45.8837    1.9335 C   0  0  0  0  0  0  0  0  0  0  0  0
   41.8882  -46.0464    7.8280 C   0  0  0  0  0  0  0  0  0  0  0  0
  1  2  1  0  0  0  0
  2  3  2  0  0  0  0
  3  4  1  0  0  0  0
  4  5  2  0  0  0  0
  5  6  1  0  0  0  0
  6  7  1  0  0  0  0
  6 24  2  0  0  0  0
  7  8  1  0  0  0  0
  8  9  1  0  0  0  0
  9 10  2  0  0  0  0
  9 11  1  0  0  0  0
 11 12  1  0  0  0  0
 12 13  1  0  0  0  0
 13 14  2  0  0  0  0
 14 15  1  0  0  0  0
 15 16  2  0  0  0  0
 16 17  1  0  0  0  0
 17 18  2  0  0  0  0
 18 19  1  0  0  0  0
 18 13  1  0  0  0  0
 19 20  1  0  0  0  0
 20 21  2  0  0  0  0
 21 22  1  0  0  0  0
 22 23  2  0  0  0  0
 23 19  1  0  0  0  0
 24  2  1  0  0  0  0
M  END
>  <CHROM.1>
156.51271936,87.53868733,-177.00474330,-37.50298881,161.61378514,44.08544817
-45.95820882,4.99470066,2.15600046,0.02170088,1.41699413

>  <Name>
design_15

>  <RI>
0

>  <Rbt.Current_Directory>
/home/ziqiaoxu/icml18-jtnn/VAEdesign

>  <Rbt.Executable>
rbdock ($Id: //depot/dev/client3/rdock/2013.1/src/exe/rbdock.cxx#4 $)

>  <Rbt.Library>
libRbt.so (2013.1, Build901 2013/11/27)

>  <Rbt.Parameter_File>
/export/apps/rDock/src/rDock_2013.1_src//data/scripts/dock.prm

>  <Rbt.Receptor>
/home/ziqiaoxu/icml18-jtnn/VAEdesign/targets/RdRp-SARS-CoV-2/pocket_docking.prm

>  <SCORE>
-23.8584

>  <SCORE.INTER>
-21.8977

>  <SCORE.INTER.CONST>
1

>  <SCORE.INTER.POLAR>
-1.66793

>  <SCORE.INTER.REPUL>
0

>  <SCORE.INTER.ROT>
5

>  <SCORE.INTER.VDW>
-26.6268

>  <SCORE.INTER.norm>
-0.912406

>  <SCORE.INTRA>
-1.96065

>  <SCORE.INTRA.DIHEDRAL>
-10.0869

>  <SCORE.INTRA.DIHEDRAL.0>
15.3323

>  <SCORE.INTRA.POLAR>
0

>  <SCORE.INTRA.POLAR.0>
0

>  <SCORE.INTRA.REPUL>
0

>  <SCORE.INTRA.REPUL.0>
0

>  <SCORE.INTRA.VDW>
3.08279

>  <SCORE.INTRA.VDW.0>
-1.33401

>  <SCORE.INTRA.norm>
-0.0816937

>  <SCORE.RESTR>
0

>  <SCORE.RESTR.CAVITY>
0

>  <SCORE.RESTR.norm>
0

>  <SCORE.SYSTEM>
0

>  <SCORE.SYSTEM.CONST>
0

>  <SCORE.SYSTEM.DIHEDRAL>
0

>  <SCORE.SYSTEM.norm>
0

>  <SCORE.heavy>
24

>  <SCORE.norm>
-0.9941

$$$$
design_16
 OpenBabel05252019093D

 27 30  0  0  0  0  0  0  0  0999 V2000
   38.4699  -49.1417    6.5349 C   0  0  0  0  0  0  0  0  0  0  0  0
   38.8978  -48.1148    7.5541 C   0  0  0  0  0  0  0  0  0  0  0  0
   38.1615  -47.7248    8.6317 N   0  0  0  0  0  0  0  0  0  0  0  0
   38.8461  -46.8254    9.3080 N   0  0  0  0  0  0  0  0  0  0  0  0
   40.0174  -46.6168    8.6983 C   0  0  0  0  0  0  0  0  0  0  0  0
   41.0794  -45.6946    9.1644 C   0  0  0  0  0  0  0  0  0  0  0  0
   40.9437  -45.0820   10.3916 C   0  0  0  0  0  0  0  0  0  0  0  0
   41.9583  -44.2572   10.7940 C   0  0  0  0  0  0  0  0  0  0  0  0
   43.0798  -44.0560    9.9778 C   0  0  0  0  0  0  0  0  0  0  0  0
   43.2211  -44.6590    8.7559 C   0  0  0  0  0  0  0  0  0  0  0  0
   44.3707  -44.5155    7.8348 C   0  0  0  0  0  0  0  0  0  0  0  0
   43.9094  -44.7347    6.4622 N   0  0  0  0  0  0  0  0  0  0  0  0
   44.7576  -45.1770    5.4728 C   0  0  0  0  0  0  0  0  0  0  0  0
   45.9938  -45.4258    5.7904 O   0  0  0  0  0  0  0  0  0  0  0  0
   44.4531  -45.4112    4.0878 C   0  0  0  0  0  0  0  0  0  0  0  0
   45.4841  -45.7932    3.1966 C   0  0  0  0  0  0  0  0  0  0  0  0
   45.2060  -46.0185    1.8850 C   0  0  0  0  0  0  0  0  0  0  0  0
   46.2001  -46.3982    0.9840 C   0  0  0  0  0  0  0  0  0  0  0  0
   45.9009  -46.6269   -0.3464 C   0  0  0  0  0  0  0  0  0  0  0  0
   44.6035  -46.4740   -0.7695 C   0  0  0  0  0  0  0  0  0  0  0  0
   43.6235  -46.0955    0.1352 C   0  0  0  0  0  0  0  0  0  0  0  0
   43.9019  -45.8604    1.4776 C   0  0  0  0  0  0  0  0  0  0  0  0
   42.9582  -45.5066    2.3110 O   0  0  0  0  0  0  0  0  0  0  0  0
   43.1811  -45.2742    3.6056 C   0  0  0  0  0  0  0  0  0  0  0  0
   42.1781  -44.9450    4.2729 O   0  0  0  0  0  0  0  0  0  0  0  0
   42.1669  -45.5076    8.3541 C   0  0  0  0  0  0  0  0  0  0  0  0
   40.0350  -47.4149    7.6225 N   0  0  0  0  0  0  0  0  0  0  0  0
  1  2  1  0  0  0  0
  2  3  2  0  0  0  0
  3  4  1  0  0  0  0
  4  5  1  0  0  0  0
  5  6  1  0  0  0  0
  5 27  2  0  0  0  0
  6  7  2  0  0  0  0
  7  8  1  0  0  0  0
  8  9  2  0  0  0  0
  9 10  1  0  0  0  0
 10 11  1  0  0  0  0
 10 26  2  0  0  0  0
 11 12  1  0  0  0  0
 12 13  1  0  0  0  0
 13 14  2  0  0  0  0
 13 15  1  0  0  0  0
 15 16  2  0  0  0  0
 16 17  1  0  0  0  0
 17 18  2  0  0  0  0
 18 19  1  0  0  0  0
 19 20  2  0  0  0  0
 20 21  1  0  0  0  0
 21 22  2  0  0  0  0
 22 23  1  0  0  0  0
 22 17  1  0  0  0  0
 23 24  1  0  0  0  0
 24 25  2  0  0  0  0
 24 15  1  0  0  0  0
 26  6  1  0  0  0  0
 27  2  1  0  0  0  0
M  END
>  <CHROM.1>
6.90248901,-152.72419772,-154.27936143,176.23624358,42.69201324,-45.90767886
5.65097162,2.17425951,0.50028539,1.28043253

>  <Name>
design_16

>  <RI>
0

>  <Rbt.Current_Directory>
/home/ziqiaoxu/icml18-jtnn/VAEdesign

>  <Rbt.Executable>
rbdock ($Id: //depot/dev/client3/rdock/2013.1/src/exe/rbdock.cxx#4 $)

>  <Rbt.Library>
libRbt.so (2013.1, Build901 2013/11/27)

>  <Rbt.Parameter_File>
/export/apps/rDock/src/rDock_2013.1_src//data/scripts/dock.prm

>  <Rbt.Receptor>
/home/ziqiaoxu/icml18-jtnn/VAEdesign/targets/RdRp-SARS-CoV-2/pocket_docking.prm

>  <SCORE>
-18.8899

>  <SCORE.INTER>
-20.6849

>  <SCORE.INTER.CONST>
1

>  <SCORE.INTER.POLAR>
-1.0198

>  <SCORE.INTER.REPUL>
0.00117367

>  <SCORE.INTER.ROT>
4

>  <SCORE.INTER.VDW>
-26.6235

>  <SCORE.INTER.norm>
-0.766108

>  <SCORE.INTRA>
1.795

>  <SCORE.INTRA.DIHEDRAL>
0.206439

>  <SCORE.INTRA.DIHEDRAL.0>
1.96687

>  <SCORE.INTRA.POLAR>
0.000457516

>  <SCORE.INTRA.POLAR.0>
-0.0209279

>  <SCORE.INTRA.REPUL>
0

>  <SCORE.INTRA.REPUL.0>
0

>  <SCORE.INTRA.VDW>
1.69023

>  <SCORE.INTRA.VDW.0>
-1.39021

>  <SCORE.INTRA.norm>
0.0664815

>  <SCORE.RESTR>
0

>  <SCORE.RESTR.CAVITY>
0

>  <SCORE.RESTR.norm>
0

>  <SCORE.SYSTEM>
0

>  <SCORE.SYSTEM.CONST>
0

>  <SCORE.SYSTEM.DIHEDRAL>
0

>  <SCORE.SYSTEM.norm>
0

>  <SCORE.heavy>
27

>  <SCORE.norm>
-0.699626

$$$$
design_6
 OpenBabel05252019093D

 25 27  0  0  0  0  0  0  0  0999 V2000
   47.5965  -48.4129   -0.5899 N   0  0  0  0  0  0  0  0  0  0  0  0
   47.4781  -47.2233    0.1627 C   0  0  0  0  0  0  0  0  0  0  0  0
   48.5113  -46.6320    0.5335 O   0  0  0  0  0  0  0  0  0  0  0  0
   46.1651  -46.7048    0.4946 C   0  0  0  0  0  0  0  0  0  0  0  0
   45.2565  -46.5151   -0.5287 C   0  0  0  0  0  0  0  0  0  0  0  0
   44.0133  -46.0268   -0.2372 C   0  0  0  0  0  0  0  0  0  0  0  0
   43.6743  -45.7251    1.0877 C   0  0  0  0  0  0  0  0  0  0  0  0
   44.5785  -45.9165    2.0924 C   0  0  0  0  0  0  0  0  0  0  0  0
   44.2540  -45.6428    3.4359 N   0  0  0  0  0  0  0  0  0  0  0  0
   45.1453  -45.5113    4.4959 C   0  0  0  0  0  0  0  0  0  0  0  0
   46.3704  -45.6236    4.3369 O   0  0  0  0  0  0  0  0  0  0  0  0
   44.6822  -45.2293    5.8822 C   0  0  0  0  0  0  0  0  0  0  0  0
   45.4982  -44.6522    6.8185 C   0  0  0  0  0  0  0  0  0  0  0  0
   45.0106  -44.4019    8.1107 C   0  0  0  0  0  0  0  0  0  0  0  0
   43.7235  -44.7174    8.4848 C   0  0  0  0  0  0  0  0  0  0  0  0
   42.9081  -45.2986    7.5357 C   0  0  0  0  0  0  0  0  0  0  0  0
   41.5489  -45.6349    7.8886 N   0  0  0  0  0  0  0  0  0  0  0  0
   40.8102  -46.1970    6.8006 C   0  0  0  0  0  0  0  0  0  0  0  0
   39.4967  -46.8002    7.1380 C   0  0  0  0  0  0  0  0  0  0  0  0
   39.4296  -47.4577    8.4978 C   0  0  0  0  0  0  0  0  0  0  0  0
   38.8719  -46.4017    9.4353 C   0  0  0  0  0  0  0  0  0  0  0  0
   39.6079  -45.1094    9.1857 C   0  0  0  0  0  0  0  0  0  0  0  0
   41.1194  -45.3719    9.2237 C   0  0  0  0  0  0  0  0  0  0  0  0
   43.3936  -45.5424    6.2656 C   0  0  0  0  0  0  0  0  0  0  0  0
   45.8531  -46.4184    1.7820 C   0  0  0  0  0  0  0  0  0  0  0  0
  1  2  1  0  0  0  0
  2  3  2  0  0  0  0
  2  4  1  0  0  0  0
  4  5  2  0  0  0  0
  5  6  1  0  0  0  0
  6  7  2  0  0  0  0
  7  8  1  0  0  0  0
  8  9  1  0  0  0  0
  8 25  2  0  0  0  0
  9 10  1  0  0  0  0
 10 11  2  0  0  0  0
 10 12  1  0  0  0  0
 12 13  2  0  0  0  0
 13 14  1  0  0  0  0
 14 15  2  0  0  0  0
 15 16  1  0  0  0  0
 16 17  1  0  0  0  0
 16 24  2  0  0  0  0
 17 18  1  0  0  0  0
 18 19  1  0  0  0  0
 19 20  1  0  0  0  0
 20 21  1  0  0  0  0
 21 22  1  0  0  0  0
 22 23  1  0  0  0  0
 23 17  1  0  0  0  0
 24 12  1  0  0  0  0
 25  4  1  0  0  0  0
M  END
>  <CHROM.1>
-52.81342578,-164.78633303,-156.93899789,178.46320129,43.79680454,-45.99527767
4.73417533,0.93324590,-0.23920317,-1.86079991

>  <Name>
design_6

>  <RI>
0

>  <Rbt.Current_Directory>
/home/ziqiaoxu/icml18-jtnn/VAEdesign

>  <Rbt.Executable>
rbdock ($Id: //depot/dev/client3/rdock/2013.1/src/exe/rbdock.cxx#4 $)

>  <Rbt.Library>
libRbt.so (2013.1, Build901 2013/11/27)

>  <Rbt.Parameter_File>
/export/apps/rDock/src/rDock_2013.1_src//data/scripts/dock.prm

>  <Rbt.Receptor>
/home/ziqiaoxu/icml18-jtnn/VAEdesign/targets/RdRp-SARS-CoV-2/pocket_docking.prm

>  <SCORE>
-18.0924

>  <SCORE.INTER>
-21.9149

>  <SCORE.INTER.CONST>
1

>  <SCORE.INTER.POLAR>
-1.38128

>  <SCORE.INTER.REPUL>
0

>  <SCORE.INTER.ROT>
4

>  <SCORE.INTER.VDW>
-26.6185

>  <SCORE.INTER.norm>
-0.876595

>  <SCORE.INTRA>
3.82249

>  <SCORE.INTRA.DIHEDRAL>
8.25487

>  <SCORE.INTRA.DIHEDRAL.0>
2.78295

>  <SCORE.INTRA.POLAR>
0

>  <SCORE.INTRA.POLAR.0>
0

>  <SCORE.INTRA.REPUL>
0

>  <SCORE.INTRA.REPUL.0>
0

>  <SCORE.INTRA.VDW>
-0.304951

>  <SCORE.INTRA.VDW.0>
4.02117

>  <SCORE.INTRA.norm>
0.152899

>  <SCORE.RESTR>
0

>  <SCORE.RESTR.CAVITY>
0

>  <SCORE.RESTR.norm>
0

>  <SCORE.SYSTEM>
0

>  <SCORE.SYSTEM.CONST>
0

>  <SCORE.SYSTEM.DIHEDRAL>
0

>  <SCORE.SYSTEM.norm>
0

>  <SCORE.heavy>
25

>  <SCORE.norm>
-0.723696

$$$$
design_9
 OpenBabel05252019093D

 24 26  0  0  0  0  0  0  0  0999 V2000
   39.6038  -49.3340    6.3691 N   0  0  0  0  0  0  0  0  0  0  0  0
   39.7888  -48.4138    7.0235 C   0  0  0  0  0  0  0  0  0  0  0  0
   40.0271  -47.2552    7.8667 C   0  0  0  0  0  0  0  0  0  0  0  0
   39.0803  -46.8927    8.8189 C   0  0  0  0  0  0  0  0  0  0  0  0
   39.2904  -45.7975    9.6262 C   0  0  0  0  0  0  0  0  0  0  0  0
   40.4372  -45.0417    9.5081 C   0  0  0  0  0  0  0  0  0  0  0  0
   40.7317  -43.8651   10.3290 C   0  0  0  0  0  0  0  0  0  0  0  0
   39.6792  -42.8104   10.2738 C   0  0  0  0  0  0  0  0  0  0  0  0
   39.7985  -42.0881    8.9570 C   0  0  0  0  0  0  0  0  0  0  0  0
   39.9464  -42.7689    7.9395 O   0  0  0  0  0  0  0  0  0  0  0  0
   39.7373  -40.6910    8.9420 N   0  0  0  0  0  0  0  0  0  0  0  0
   39.8409  -39.8907    7.7900 C   0  0  0  0  0  0  0  0  0  0  0  0
   39.7487  -40.5105    6.5296 C   0  0  0  0  0  0  0  0  0  0  0  0
   39.8213  -39.7855    5.3720 C   0  0  0  0  0  0  0  0  0  0  0  0
   39.9863  -38.4266    5.3633 C   0  0  0  0  0  0  0  0  0  0  0  0
   40.0625  -37.6671    4.1490 N   0  0  0  0  0  0  0  0  0  0  0  0
   40.0966  -38.1382    2.9027 C   0  0  0  0  0  0  0  0  0  0  0  0
   40.1706  -37.0997    1.9881 C   0  0  0  0  0  0  0  0  0  0  0  0
   40.1794  -35.9760    2.7475 N   0  0  0  0  0  0  0  0  0  0  0  0
   40.1137  -36.3319    4.0523 C   0  0  0  0  0  0  0  0  0  0  0  0
   40.0792  -37.7932    6.5778 C   0  0  0  0  0  0  0  0  0  0  0  0
   40.0056  -38.5276    7.7635 C   0  0  0  0  0  0  0  0  0  0  0  0
   41.3697  -45.4232    8.5491 C   0  0  0  0  0  0  0  0  0  0  0  0
   41.1647  -46.5115    7.7443 C   0  0  0  0  0  0  0  0  0  0  0  0
  1  2  3  0  0  0  0
  2  3  1  0  0  0  0
  3  4  2  0  0  0  0
  4  5  1  0  0  0  0
  5  6  2  0  0  0  0
  6  7  1  0  0  0  0
  6 23  1  0  0  0  0
  7  8  1  0  0  0  0
  8  9  1  0  0  0  0
  9 10  2  0  0  0  0
  9 11  1  0  0  0  0
 11 12  1  0  0  0  0
 12 13  2  0  0  0  0
 13 14  1  0  0  0  0
 14 15  2  0  0  0  0
 15 16  1  0  0  0  0
 15 21  1  0  0  0  0
 16 17  1  0  0  0  0
 17 18  2  0  0  0  0
 18 19  1  0  0  0  0
 19 20  2  0  0  0  0
 20 16  1  0  0  0  0
 21 22  2  0  0  0  0
 22 12  1  0  0  0  0
 23 24  2  0  0  0  0
 24  3  1  0  0  0  0
M  END
>  <CHROM.1>
-56.02892705,-75.52481417,45.19064284,12.64831886,-5.78593051,40.02991813
-41.92784208,6.97296026,-1.98524371,1.56224107,-0.01578387

>  <Name>
design_9

>  <RI>
0

>  <Rbt.Current_Directory>
/home/ziqiaoxu/icml18-jtnn/VAEdesign

>  <Rbt.Executable>
rbdock ($Id: //depot/dev/client3/rdock/2013.1/src/exe/rbdock.cxx#4 $)

>  <Rbt.Library>
libRbt.so (2013.1, Build901 2013/11/27)

>  <Rbt.Parameter_File>
/export/apps/rDock/src/rDock_2013.1_src//data/scripts/dock.prm

>  <Rbt.Receptor>
/home/ziqiaoxu/icml18-jtnn/VAEdesign/targets/RdRp-SARS-CoV-2/pocket_docking.prm

>  <SCORE>
-20.7857

>  <SCORE.INTER>
-19.3481

>  <SCORE.INTER.CONST>
1

>  <SCORE.INTER.POLAR>
-0.921396

>  <SCORE.INTER.REPUL>
0

>  <SCORE.INTER.ROT>
5

>  <SCORE.INTER.VDW>
-26.6154

>  <SCORE.INTER.norm>
-0.806173

>  <SCORE.INTRA>
-1.4376

>  <SCORE.INTRA.DIHEDRAL>
-2.13089

>  <SCORE.INTRA.DIHEDRAL.0>
6.89918

>  <SCORE.INTRA.POLAR>
0

>  <SCORE.INTRA.POLAR.0>
0

>  <SCORE.INTRA.REPUL>
0

>  <SCORE.INTRA.REPUL.0>
0

>  <SCORE.INTRA.VDW>
-0.372161

>  <SCORE.INTRA.VDW.0>
1.39662

>  <SCORE.INTRA.norm>
-0.0599001

>  <SCORE.RESTR>
0

>  <SCORE.RESTR.CAVITY>
0

>  <SCORE.RESTR.norm>
0

>  <SCORE.SYSTEM>
0

>  <SCORE.SYSTEM.CONST>
0

>  <SCORE.SYSTEM.DIHEDRAL>
0

>  <SCORE.SYSTEM.norm>
0

>  <SCORE.heavy>
24

>  <SCORE.norm>
-0.866073

$$$$
design_4
 OpenBabel05252019093D

 24 25  0  0  0  0  0  0  0  0999 V2000
   43.9268  -43.9840    9.5093 C   0  0  0  0  0  0  0  0  0  0  0  0
   43.0399  -44.8056    8.6371 C   0  0  0  0  0  0  0  0  0  0  0  0
   43.4235  -45.2095    7.3877 C   0  0  0  0  0  0  0  0  0  0  0  0
   42.5667  -45.9768    6.6014 C   0  0  0  0  0  0  0  0  0  0  0  0
   41.3168  -46.3576    7.0360 C   0  0  0  0  0  0  0  0  0  0  0  0
   40.2469  -47.3296    6.0595 S   0  0  0  0  0  0  0  0  0  0  0  0
   39.9452  -48.5809    6.8781 O   0  0  0  0  0  0  0  0  0  0  0  0
   40.9212  -47.8079    4.8122 O   0  0  0  0  0  0  0  0  0  0  0  0
   38.8009  -46.5268    5.8019 N   0  0  0  0  0  0  0  0  0  0  0  0
   37.5992  -47.2488    5.8428 C   0  0  0  0  0  0  0  0  0  0  0  0
   38.8367  -45.3380    5.0513 C   0  0  0  0  0  0  0  0  0  0  0  0
   37.9051  -44.2833    5.4697 C   0  0  0  0  0  0  0  0  0  0  0  0
   36.5350  -44.4141    5.2331 C   0  0  0  0  0  0  0  0  0  0  0  0
   35.6347  -43.4468    5.6111 C   0  0  0  0  0  0  0  0  0  0  0  0
   36.0566  -42.3015    6.2439 C   0  0  0  0  0  0  0  0  0  0  0  0
   34.9663  -41.0411    6.7470 S   0  0  0  0  0  0  0  0  0  0  0  0
   33.4327  -41.1967    5.9754 N   0  0  0  0  0  0  0  0  0  0  0  0
   35.5305  -39.6773    6.5373 O   0  0  0  0  0  0  0  0  0  0  0  0
   34.7301  -41.1939    8.2362 O   0  0  0  0  0  0  0  0  0  0  0  0
   37.4013  -42.1558    6.4851 C   0  0  0  0  0  0  0  0  0  0  0  0
   38.2979  -43.1270    6.1045 C   0  0  0  0  0  0  0  0  0  0  0  0
   40.9519  -45.9345    8.3085 C   0  0  0  0  0  0  0  0  0  0  0  0
   39.6190  -46.3301    8.7988 C   0  0  0  0  0  0  0  0  0  0  0  0
   41.8000  -45.1754    9.0860 C   0  0  0  0  0  0  0  0  0  0  0  0
  1  2  1  0  0  0  0
  2  3  2  0  0  0  0
  3  4  1  0  0  0  0
  4  5  2  0  0  0  0
  5  6  1  0  0  0  0
  5 22  1  0  0  0  0
  6  7  2  0  0  0  0
  6  8  2  0  0  0  0
  6  9  1  0  0  0  0
  9 10  1  0  0  0  0
  9 11  1  0  0  0  0
 11 12  1  0  0  0  0
 12 13  2  0  0  0  0
 13 14  1  0  0  0  0
 14 15  2  0  0  0  0
 15 16  1  0  0  0  0
 15 20  1  0  0  0  0
 16 17  1  0  0  0  0
 16 18  2  0  0  0  0
 16 19  2  0  0  0  0
 20 21  2  0  0  0  0
 21 12  1  0  0  0  0
 22 23  1  0  0  0  0
 22 24  2  0  0  0  0
 24  2  1  0  0  0  0
M  END
>  <CHROM.1>
121.74321358,-139.91548954,-144.14258100,-72.24129678,-16.08384172,-19.22321597
38.69145010,-44.51137198,6.72513864,-0.52777542,-0.42224057,0.46845141

>  <Name>
design_4

>  <RI>
0

>  <Rbt.Current_Directory>
/home/ziqiaoxu/icml18-jtnn/VAEdesign

>  <Rbt.Executable>
rbdock ($Id: //depot/dev/client3/rdock/2013.1/src/exe/rbdock.cxx#4 $)

>  <Rbt.Library>
libRbt.so (2013.1, Build901 2013/11/27)

>  <Rbt.Parameter_File>
/export/apps/rDock/src/rDock_2013.1_src//data/scripts/dock.prm

>  <Rbt.Receptor>
/home/ziqiaoxu/icml18-jtnn/VAEdesign/targets/RdRp-SARS-CoV-2/pocket_docking.prm

>  <SCORE>
-20.8703

>  <SCORE.INTER>
-21.2287

>  <SCORE.INTER.CONST>
1

>  <SCORE.INTER.POLAR>
-1.82832

>  <SCORE.INTER.REPUL>
0.0403802

>  <SCORE.INTER.ROT>
6

>  <SCORE.INTER.VDW>
-26.6143

>  <SCORE.INTER.norm>
-0.884528

>  <SCORE.INTRA>
0.358332

>  <SCORE.INTRA.DIHEDRAL>
-0.331132

>  <SCORE.INTRA.DIHEDRAL.0>
7.04692

>  <SCORE.INTRA.POLAR>
0

>  <SCORE.INTRA.POLAR.0>
0

>  <SCORE.INTRA.REPUL>
0

>  <SCORE.INTRA.REPUL.0>
0

>  <SCORE.INTRA.VDW>
0.523898

>  <SCORE.INTRA.VDW.0>
-2.2844

>  <SCORE.INTRA.norm>
0.0149305

>  <SCORE.RESTR>
0

>  <SCORE.RESTR.CAVITY>
0

>  <SCORE.RESTR.norm>
0

>  <SCORE.SYSTEM>
0

>  <SCORE.SYSTEM.CONST>
0

>  <SCORE.SYSTEM.DIHEDRAL>
0

>  <SCORE.SYSTEM.norm>
0

>  <SCORE.heavy>
24

>  <SCORE.norm>
-0.869597

$$$$
design_8
 OpenBabel05252019093D

 24 26  0  0  0  0  0  0  0  0999 V2000
   47.5508  -43.4344    6.8131 C   0  0  0  0  0  0  0  0  0  0  0  0
   46.2083  -44.0253    7.1222 C   0  0  0  0  0  0  0  0  0  0  0  0
   45.5136  -43.6969    8.2498 C   0  0  0  0  0  0  0  0  0  0  0  0
   44.2872  -44.2895    8.4508 C   0  0  0  0  0  0  0  0  0  0  0  0
   43.7283  -45.1984    7.5677 C   0  0  0  0  0  0  0  0  0  0  0  0
   42.4282  -45.7889    7.8449 C   0  0  0  0  0  0  0  0  0  0  0  0
   41.8539  -46.7369    7.0862 N   0  0  0  0  0  0  0  0  0  0  0  0
   40.6830  -47.0348    7.6348 N   0  0  0  0  0  0  0  0  0  0  0  0
   40.4939  -46.2972    8.7312 N   0  0  0  0  0  0  0  0  0  0  0  0
   39.3361  -46.3216    9.6145 C   0  0  0  0  0  0  0  0  0  0  0  0
   38.1402  -46.5130    8.7667 C   0  0  0  0  0  0  0  0  0  0  0  0
   37.2275  -47.2658    9.1662 O   0  0  0  0  0  0  0  0  0  0  0  0
   38.0546  -45.8577    7.5528 O   0  0  0  0  0  0  0  0  0  0  0  0
   36.9372  -46.0915    6.6926 C   0  0  0  0  0  0  0  0  0  0  0  0
   37.0951  -45.2241    5.4803 C   0  0  0  0  0  0  0  0  0  0  0  0
   36.9721  -43.7828    5.8375 C   0  0  0  0  0  0  0  0  0  0  0  0
   35.7438  -43.1373    5.7233 C   0  0  0  0  0  0  0  0  0  0  0  0
   35.6752  -41.8056    6.0647 C   0  0  0  0  0  0  0  0  0  0  0  0
   36.7637  -41.0828    6.5136 C   0  0  0  0  0  0  0  0  0  0  0  0
   37.9658  -41.7412    6.6182 C   0  0  0  0  0  0  0  0  0  0  0  0
   38.0620  -43.0694    6.2842 C   0  0  0  0  0  0  0  0  0  0  0  0
   41.5710  -45.5413    8.8436 N   0  0  0  0  0  0  0  0  0  0  0  0
   44.4662  -45.4973    6.4464 C   0  0  0  0  0  0  0  0  0  0  0  0
   45.6971  -44.9214    6.2154 C   0  0  0  0  0  0  0  0  0  0  0  0
  1  2  1  0  0  0  0
  2  3  2  0  0  0  0
  3  4  1  0  0  0  0
  4  5  2  0  0  0  0
  5  6  1  0  0  0  0
  5 23  1  0  0  0  0
  6  7  1  0  0  0  0
  7  8  2  0  0  0  0
  8  9  1  0  0  0  0
  9 10  1  0  0  0  0
  9 22  1  0  0  0  0
 10 11  1  0  0  0  0
 11 12  2  0  0  0  0
 11 13  1  0  0  0  0
 13 14  1  0  0  0  0
 14 15  1  0  0  0  0
 15 16  1  0  0  0  0
 16 17  2  0  0  0  0
 17 18  1  0  0  0  0
 18 19  2  0  0  0  0
 19 20  1  0  0  0  0
 20 21  2  0  0  0  0
 21 16  1  0  0  0  0
 22  6  2  0  0  0  0
 23 24  2  0  0  0  0
 24  2  1  0  0  0  0
M  END
>  <CHROM.1>
-175.69842553,-37.28892920,140.14784448,176.61042366,178.42716215,-66.88941928
-94.43303139,40.47657520,-44.81558079,7.32857237,-0.08787357,-0.03338629
-0.46910323

>  <Name>
design_8

>  <RI>
0

>  <Rbt.Current_Directory>
/home/ziqiaoxu/icml18-jtnn/VAEdesign

>  <Rbt.Executable>
rbdock ($Id: //depot/dev/client3/rdock/2013.1/src/exe/rbdock.cxx#4 $)

>  <Rbt.Library>
libRbt.so (2013.1, Build901 2013/11/27)

>  <Rbt.Parameter_File>
/export/apps/rDock/src/rDock_2013.1_src//data/scripts/dock.prm

>  <Rbt.Receptor>
/home/ziqiaoxu/icml18-jtnn/VAEdesign/targets/RdRp-SARS-CoV-2/pocket_docking.prm

>  <SCORE>
-14.0707

>  <SCORE.INTER>
-14.2134

>  <SCORE.INTER.CONST>
1

>  <SCORE.INTER.POLAR>
0

>  <SCORE.INTER.REPUL>
0

>  <SCORE.INTER.ROT>
7

>  <SCORE.INTER.VDW>
-26.6134

>  <SCORE.INTER.norm>
-0.592223

>  <SCORE.INTRA>
0.14266

>  <SCORE.INTRA.DIHEDRAL>
0.30622

>  <SCORE.INTRA.DIHEDRAL.0>
4.47926

>  <SCORE.INTRA.POLAR>
0

>  <SCORE.INTRA.POLAR.0>
0

>  <SCORE.INTRA.REPUL>
0

>  <SCORE.INTRA.REPUL.0>
0

>  <SCORE.INTRA.VDW>
-0.0104495

>  <SCORE.INTRA.VDW.0>
-1.35884

>  <SCORE.INTRA.norm>
0.00594418

>  <SCORE.RESTR>
0

>  <SCORE.RESTR.CAVITY>
0

>  <SCORE.RESTR.norm>
0

>  <SCORE.SYSTEM>
0

>  <SCORE.SYSTEM.CONST>
0

>  <SCORE.SYSTEM.DIHEDRAL>
0

>  <SCORE.SYSTEM.norm>
0

>  <SCORE.heavy>
24

>  <SCORE.norm>
-0.586279

$$$$
design_2
 OpenBabel05252019093D

 23 24  0  0  0  0  0  0  0  0999 V2000
   47.2109  -44.5273    5.2617 C   0  0  0  0  0  0  0  0  0  0  0  0
   46.0431  -45.0189    6.1469 N   0  0  0  0  0  0  0  0  0  0  0  0
   45.5045  -43.8920    6.9172 C   0  0  0  0  0  0  0  0  0  0  0  0
   45.8372  -42.8485    6.8547 O   0  0  0  0  0  0  0  0  0  0  0  0
   44.4210  -44.4099    7.7937 C   0  0  0  0  0  0  0  0  0  0  0  0
   43.5333  -45.3013    7.5058 C   0  0  0  0  0  0  0  0  0  0  0  0
   42.4109  -45.6212    8.2206 C   0  0  0  0  0  0  0  0  0  0  0  0
   42.1831  -44.9380    9.4405 C   0  0  0  0  0  0  0  0  0  0  0  0
   40.8776  -45.0853    9.9847 C   0  0  0  0  0  0  0  0  0  0  0  0
   39.7772  -45.8388    9.6075 N   0  0  0  0  0  0  0  0  0  0  0  0
   38.7685  -46.5183    9.2735 C   0  0  0  0  0  0  0  0  0  0  0  0
   37.5899  -46.8744    9.3269 O   0  0  0  0  0  0  0  0  0  0  0  0
   39.3368  -47.3734    8.1067 N   0  0  0  0  0  0  0  0  0  0  0  0
   38.7379  -48.1425    7.1343 C   0  0  0  0  0  0  0  0  0  0  0  0
   38.7085  -47.3513    5.9415 C   0  0  2  0  0  0  0  0  0  0  0  0
   40.1205  -47.3967    5.2834 C   0  0  0  0  0  0  0  0  0  0  0  0
   37.9534  -46.1551    5.7078 C   0  0  0  0  0  0  0  0  0  0  0  0
   38.2916  -44.9316    6.0259 C   0  0  0  0  0  0  0  0  0  0  0  0
   37.4253  -43.9090    5.9377 C   0  0  0  0  0  0  0  0  0  0  0  0
   36.0059  -44.7120    5.3532 S   0  0  0  0  0  0  0  0  0  0  0  0
   36.5952  -46.3442    5.2465 C   0  0  0  0  0  0  0  0  0  0  0  0
   43.1857  -43.9871    9.8019 C   0  0  0  0  0  0  0  0  0  0  0  0
   44.2229  -43.7256    9.0327 C   0  0  0  0  0  0  0  0  0  0  0  0
  1  2  1  0  0  0  0
  2  3  1  0  0  0  0
  3  4  2  0  0  0  0
  3  5  1  0  0  0  0
  5  6  2  0  0  0  0
  6  7  1  0  0  0  0
  7  8  2  0  0  0  0
  8  9  1  0  0  0  0
  8 22  1  0  0  0  0
  9 10  1  0  0  0  0
 10 11  1  0  0  0  0
 11 12  2  0  0  0  0
 11 13  1  0  0  0  0
 13 14  1  0  0  0  0
 14 15  1  0  0  0  0
 15 16  1  1  0  0  0
 15 17  1  0  0  0  0
 17 18  1  0  0  0  0
 18 19  2  0  0  0  0
 19 20  1  0  0  0  0
 20 21  1  0  0  0  0
 21 17  2  0  0  0  0
 22 23  2  0  0  0  0
 23  5  1  0  0  0  0
M  END
>  <CHROM.1>
-39.16660791,4.67820077,-171.89573176,99.66731673,79.13403145,84.70496495
40.82128998,-45.40919116,7.27099689,-0.06689136,-0.22586451,-1.43097231

>  <Name>
design_2

>  <RI>
0

>  <Rbt.Current_Directory>
/home/ziqiaoxu/icml18-jtnn/VAEdesign

>  <Rbt.Executable>
rbdock ($Id: //depot/dev/client3/rdock/2013.1/src/exe/rbdock.cxx#4 $)

>  <Rbt.Library>
libRbt.so (2013.1, Build901 2013/11/27)

>  <Rbt.Parameter_File>
/export/apps/rDock/src/rDock_2013.1_src//data/scripts/dock.prm

>  <Rbt.Receptor>
/home/ziqiaoxu/icml18-jtnn/VAEdesign/targets/RdRp-SARS-CoV-2/pocket_docking.prm

>  <SCORE>
-23.3298

>  <SCORE.INTER>
-20.6662

>  <SCORE.INTER.CONST>
1

>  <SCORE.INTER.POLAR>
-1.60754

>  <SCORE.INTER.REPUL>
0

>  <SCORE.INTER.ROT>
6

>  <SCORE.INTER.VDW>
-26.6006

>  <SCORE.INTER.norm>
-0.898531

>  <SCORE.INTRA>
-2.66358

>  <SCORE.INTRA.DIHEDRAL>
3.06134

>  <SCORE.INTRA.DIHEDRAL.0>
6.60366

>  <SCORE.INTRA.POLAR>
0

>  <SCORE.INTRA.POLAR.0>
0

>  <SCORE.INTRA.REPUL>
0

>  <SCORE.INTRA.REPUL.0>
0

>  <SCORE.INTRA.VDW>
-4.19425

>  <SCORE.INTRA.VDW.0>
1.51973

>  <SCORE.INTRA.norm>
-0.115808

>  <SCORE.RESTR>
0

>  <SCORE.RESTR.CAVITY>
0

>  <SCORE.RESTR.norm>
0

>  <SCORE.SYSTEM>
0

>  <SCORE.SYSTEM.CONST>
0

>  <SCORE.SYSTEM.DIHEDRAL>
0

>  <SCORE.SYSTEM.norm>
0

>  <SCORE.heavy>
23

>  <SCORE.norm>
-1.01434

$$$$
design_13
 OpenBabel05252019093D

 25 27  0  0  0  0  0  0  0  0999 V2000
   39.9703  -46.1132   10.7320 N   0  0  0  0  0  0  0  0  0  0  0  0
   40.4204  -45.1648    9.7741 C   0  0  0  0  0  0  0  0  0  0  0  0
   39.5513  -44.5562    9.1028 O   0  0  0  0  0  0  0  0  0  0  0  0
   41.8627  -44.8842    9.5546 C   0  0  0  0  0  0  0  0  0  0  0  0
   42.2667  -45.0108    7.7993 S   0  0  0  0  0  0  0  0  0  0  0  0
   41.2560  -46.2376    7.0062 C   0  0  0  0  0  0  0  0  0  0  0  0
   40.5471  -47.1303    7.8169 C   0  0  0  0  0  0  0  0  0  0  0  0
   39.7650  -48.1386    7.3142 C   0  0  0  0  0  0  0  0  0  0  0  0
   39.6717  -48.2804    5.9625 C   0  0  0  0  0  0  0  0  0  0  0  0
   40.3564  -47.4178    5.1419 C   0  0  0  0  0  0  0  0  0  0  0  0
   41.1608  -46.3796    5.6565 C   0  0  0  0  0  0  0  0  0  0  0  0
   41.7968  -45.4973    4.7062 C   0  0  0  0  0  0  0  0  0  0  0  0
   42.5952  -44.6250    5.2612 O   0  0  0  0  0  0  0  0  0  0  0  0
   41.6630  -45.4747    3.3087 N   0  0  0  0  0  0  0  0  0  0  0  0
   42.4094  -44.4736    2.5317 C   0  0  0  0  0  0  0  0  0  0  0  0
   41.4803  -43.3739    2.0618 C   0  0  0  0  0  0  0  0  0  0  0  0
   42.2965  -42.3588    1.3046 C   0  0  0  0  0  0  0  0  0  0  0  0
   43.3432  -42.5154    0.5437 N   0  0  0  0  0  0  0  0  0  0  0  0
   43.9169  -41.4972   -0.0314 C   0  0  0  0  0  0  0  0  0  0  0  0
   45.0402  -41.5457   -0.8657 C   0  0  0  0  0  0  0  0  0  0  0  0
   45.5517  -40.3989   -1.4131 C   0  0  0  0  0  0  0  0  0  0  0  0
   45.0143  -39.1538   -1.1891 C   0  0  0  0  0  0  0  0  0  0  0  0
   43.9104  -39.0943   -0.3709 C   0  0  0  0  0  0  0  0  0  0  0  0
   43.3742  -40.2597    0.1976 C   0  0  0  0  0  0  0  0  0  0  0  0
   42.0664  -40.6496    1.2323 S   0  0  0  0  0  0  0  0  0  0  0  0
  1  2  1  0  0  0  0
  2  3  2  0  0  0  0
  2  4  1  0  0  0  0
  4  5  1  0  0  0  0
  5  6  1  0  0  0  0
  6  7  2  0  0  0  0
  7  8  1  0  0  0  0
  8  9  2  0  0  0  0
  9 10  1  0  0  0  0
 10 11  2  0  0  0  0
 11 12  1  0  0  0  0
 11  6  1  0  0  0  0
 12 13  2  0  0  0  0
 12 14  1  0  0  0  0
 14 15  1  0  0  0  0
 15 16  1  0  0  0  0
 16 17  1  0  0  0  0
 17 18  2  0  0  0  0
 18 19  1  0  0  0  0
 19 20  2  0  0  0  0
 20 21  1  0  0  0  0
 21 22  2  0  0  0  0
 22 23  1  0  0  0  0
 23 24  2  0  0  0  0
 24 25  1  0  0  0  0
 24 19  1  0  0  0  0
 25 17  1  0  0  0  0
M  END
>  <CHROM.1>
128.51577378,-32.37127588,-14.38743570,6.87920339,-104.83725174,178.52981690
33.83774463,42.02899041,-43.92605645,4.26005618,-2.59565715,-1.20823067,-1.98656720

>  <Name>
design_13

>  <RI>
0

>  <Rbt.Current_Directory>
/home/ziqiaoxu/icml18-jtnn/VAEdesign

>  <Rbt.Executable>
rbdock ($Id: //depot/dev/client3/rdock/2013.1/src/exe/rbdock.cxx#4 $)

>  <Rbt.Library>
libRbt.so (2013.1, Build901 2013/11/27)

>  <Rbt.Parameter_File>
/export/apps/rDock/src/rDock_2013.1_src//data/scripts/dock.prm

>  <Rbt.Receptor>
/home/ziqiaoxu/icml18-jtnn/VAEdesign/targets/RdRp-SARS-CoV-2/pocket_docking.prm

>  <SCORE>
-24.6031

>  <SCORE.INTER>
-25.5375

>  <SCORE.INTER.CONST>
1

>  <SCORE.INTER.POLAR>
-3.33496

>  <SCORE.INTER.REPUL>
0

>  <SCORE.INTER.ROT>
7

>  <SCORE.INTER.VDW>
-26.5986

>  <SCORE.INTER.norm>
-1.0215

>  <SCORE.INTRA>
0.934404

>  <SCORE.INTRA.DIHEDRAL>
-1.20304

>  <SCORE.INTRA.DIHEDRAL.0>
8.24395

>  <SCORE.INTRA.POLAR>
0

>  <SCORE.INTRA.POLAR.0>
0

>  <SCORE.INTRA.REPUL>
0

>  <SCORE.INTRA.REPUL.0>
0

>  <SCORE.INTRA.VDW>
1.53593

>  <SCORE.INTRA.VDW.0>
-0.647385

>  <SCORE.INTRA.norm>
0.0373762

>  <SCORE.RESTR>
0

>  <SCORE.RESTR.CAVITY>
0

>  <SCORE.RESTR.norm>
0

>  <SCORE.SYSTEM>
0

>  <SCORE.SYSTEM.CONST>
0

>  <SCORE.SYSTEM.DIHEDRAL>
0

>  <SCORE.SYSTEM.norm>
0

>  <SCORE.heavy>
25

>  <SCORE.norm>
-0.984123

$$$$
design_15
 OpenBabel05252019093D

 26 28  0  0  0  0  0  0  0  0999 V2000
   36.4815  -42.6657    5.9711 C   0  0  0  0  0  0  0  0  0  0  0  0
   36.4801  -44.1471    5.8152 C   0  0  0  0  0  0  0  0  0  0  0  0
   37.5581  -44.9554    6.0713 C   0  0  0  0  0  0  0  0  0  0  0  0
   37.1369  -46.2496    5.8025 C   0  0  0  0  0  0  0  0  0  0  0  0
   37.8762  -47.4920    5.9692 C   0  0  0  0  0  0  0  0  0  0  0  0
   39.2894  -47.5460    6.2872 C   0  0  0  0  0  0  0  0  0  0  0  0
   39.8880  -46.9095    7.3873 N   0  0  0  0  0  0  0  0  0  0  0  0
   40.9915  -46.0239    7.4516 C   0  0  0  0  0  0  0  0  0  0  0  0
   41.4936  -45.7563    6.3292 O   0  0  0  0  0  0  0  0  0  0  0  0
   41.5272  -45.4545    8.6870 C   0  0  0  0  0  0  0  0  0  0  0  0
   40.6783  -45.3972    9.7987 C   0  0  0  0  0  0  0  0  0  0  0  0
   41.0599  -44.7892   10.9724 C   0  0  0  0  0  0  0  0  0  0  0  0
   42.3078  -44.2392   11.0137 C   0  0  0  0  0  0  0  0  0  0  0  0
   43.1739  -44.2774    9.9389 C   0  0  0  0  0  0  0  0  0  0  0  0
   42.7940  -44.8978    8.7340 C   0  0  0  0  0  0  0  0  0  0  0  0
   43.7165  -45.0416    7.6826 N   0  0  0  0  0  0  0  0  0  0  0  0
   44.9971  -44.4594    7.5690 C   0  0  0  0  0  0  0  0  0  0  0  0
   45.4836  -43.6896    8.4484 O   0  0  0  0  0  0  0  0  0  0  0  0
   45.8723  -44.7051    6.4085 C   0  0  0  0  0  0  0  0  0  0  0  0
   47.0310  -44.0200    6.1738 C   0  0  0  0  0  0  0  0  0  0  0  0
   47.8475  -44.2679    5.0644 C   0  0  0  0  0  0  0  0  0  0  0  0
   47.4671  -45.2414    4.1742 C   0  0  0  0  0  0  0  0  0  0  0  0
   46.2979  -45.9243    4.4221 C   0  0  0  0  0  0  0  0  0  0  0  0
   45.5448  -45.6559    5.4966 N   0  0  0  0  0  0  0  0  0  0  0  0
   35.8326  -46.1534    5.4002 N   0  0  0  0  0  0  0  0  0  0  0  0
   35.4597  -44.8918    5.4146 N   0  0  0  0  0  0  0  0  0  0  0  0
  1  2  1  0  0  0  0
  2  3  1  0  0  0  0
  3  4  2  0  0  0  0
  4  5  1  0  0  0  0
  4 25  1  0  0  0  0
  5  6  1  0  0  0  0
  6  7  1  0  0  0  0
  7  8  1  0  0  0  0
  8  9  2  0  0  0  0
  8 10  1  0  0  0  0
 10 11  2  0  0  0  0
 11 12  1  0  0  0  0
 12 13  2  0  0  0  0
 13 14  1  0  0  0  0
 14 15  2  0  0  0  0
 15 16  1  0  0  0  0
 15 10  1  0  0  0  0
 16 17  1  0  0  0  0
 17 18  2  0  0  0  0
 17 19  1  0  0  0  0
 19 20  2  0  0  0  0
 20 21  1  0  0  0  0
 21 22  2  0  0  0  0
 22 23  1  0  0  0  0
 23 24  2  0  0  0  0
 24 19  1  0  0  0  0
 25 26  1  0  0  0  0
 26  2  2  0  0  0  0
M  END
>  <CHROM.1>
-8.99303731,54.71386813,-126.97278941,-22.31880587,175.66041934,170.55801703
41.64895474,-45.19857388,6.99744627,-3.09985884,0.07245195,1.38028660

>  <Name>
design_15

>  <RI>
0

>  <Rbt.Current_Directory>
/home/ziqiaoxu/icml18-jtnn/VAEdesign

>  <Rbt.Executable>
rbdock ($Id: //depot/dev/client3/rdock/2013.1/src/exe/rbdock.cxx#4 $)

>  <Rbt.Library>
libRbt.so (2013.1, Build901 2013/11/27)

>  <Rbt.Parameter_File>
/export/apps/rDock/src/rDock_2013.1_src//data/scripts/dock.prm

>  <Rbt.Receptor>
/home/ziqiaoxu/icml18-jtnn/VAEdesign/targets/RdRp-SARS-CoV-2/pocket_docking.prm

>  <SCORE>
-17.8045

>  <SCORE.INTER>
-18.4549

>  <SCORE.INTER.CONST>
1

>  <SCORE.INTER.POLAR>
-0.959166

>  <SCORE.INTER.REPUL>
0

>  <SCORE.INTER.ROT>
6

>  <SCORE.INTER.VDW>
-26.5937

>  <SCORE.INTER.norm>
-0.709803

>  <SCORE.INTRA>
0.650377

>  <SCORE.INTRA.DIHEDRAL>
-1.56173

>  <SCORE.INTRA.DIHEDRAL.0>
5.16983

>  <SCORE.INTRA.POLAR>
-0.00497612

>  <SCORE.INTRA.POLAR.0>
0

>  <SCORE.INTRA.REPUL>
0.0614079

>  <SCORE.INTRA.REPUL.0>
0

>  <SCORE.INTRA.VDW>
1.14112

>  <SCORE.INTRA.VDW.0>
-2.68104

>  <SCORE.INTRA.norm>
0.0250145

>  <SCORE.RESTR>
0

>  <SCORE.RESTR.CAVITY>
0

>  <SCORE.RESTR.norm>
0

>  <SCORE.SYSTEM>
0

>  <SCORE.SYSTEM.CONST>
0

>  <SCORE.SYSTEM.DIHEDRAL>
0

>  <SCORE.SYSTEM.norm>
0

>  <SCORE.heavy>
26

>  <SCORE.norm>
-0.684789

$$$$
design_2
 OpenBabel05252019093D

 24 26  0  0  0  0  0  0  0  0999 V2000
   38.7133  -44.9732    8.4457 O   0  0  0  0  0  0  0  0  0  0  0  0
   38.9053  -46.0721    9.0364 C   0  0  0  0  0  0  0  0  0  0  0  0
   38.0382  -47.2492    8.7628 C   0  0  0  0  0  0  0  0  0  0  0  0
   38.7741  -48.1433    7.7827 C   0  0  0  0  0  0  0  0  0  0  0  0
   38.9448  -47.3659    6.5346 C   0  0  0  0  0  0  0  0  0  0  0  0
   40.2123  -47.1762    6.0466 C   0  0  0  0  0  0  0  0  0  0  0  0
   40.4604  -46.4687    4.8984 C   0  0  0  0  0  0  0  0  0  0  0  0
   39.3861  -45.9358    4.2226 C   0  0  0  0  0  0  0  0  0  0  0  0
   39.7053  -45.0343    2.7588 Cl  0  0  0  0  0  0  0  0  0  0  0  0
   38.1163  -46.1201    4.7023 C   0  0  0  0  0  0  0  0  0  0  0  0
   37.8837  -46.8382    5.8650 C   0  0  0  0  0  0  0  0  0  0  0  0
   39.9507  -46.2084    9.9721 N   0  0  0  0  0  0  0  0  0  0  0  0
   40.8497  -45.1006   10.2945 C   0  0  0  0  0  0  0  0  0  0  0  0
   41.9736  -45.0821    9.3302 C   0  0  0  0  0  0  0  0  0  0  0  0
   43.0967  -44.3313    9.6044 C   0  0  0  0  0  0  0  0  0  0  0  0
   44.1649  -44.2906    8.7160 C   0  0  0  0  0  0  0  0  0  0  0  0
   44.0907  -45.0119    7.5521 C   0  0  0  0  0  0  0  0  0  0  0  0
   45.1787  -44.9722    6.6433 N   0  0  0  0  0  0  0  0  0  0  0  0
   46.2896  -44.2008    6.7282 C   0  0  0  0  0  0  0  0  0  0  0  0
   47.1077  -44.4277    5.6900 N   0  0  0  0  0  0  0  0  0  0  0  0
   46.4982  -45.3675    4.9282 C   0  0  0  0  0  0  0  0  0  0  0  0
   45.3445  -45.6754    5.5229 N   0  0  0  0  0  0  0  0  0  0  0  0
   42.9910  -45.7696    7.2456 C   0  0  0  0  0  0  0  0  0  0  0  0
   41.9239  -45.7981    8.1534 C   0  0  0  0  0  0  0  0  0  0  0  0
  1  2  2  0  0  0  0
  2  3  1  0  0  0  0
  2 12  1  0  0  0  0
  3  4  1  0  0  0  0
  4  5  1  0  0  0  0
  5  6  2  0  0  0  0
  6  7  1  0  0  0  0
  7  8  2  0  0  0  0
  8  9  1  0  0  0  0
  8 10  1  0  0  0  0
 10 11  2  0  0  0  0
 11  5  1  0  0  0  0
 12 13  1  0  0  0  0
 13 14  1  0  0  0  0
 14 15  2  0  0  0  0
 15 16  1  0  0  0  0
 16 17  2  0  0  0  0
 17 18  1  0  0  0  0
 17 23  1  0  0  0  0
 18 19  1  0  0  0  0
 19 20  2  0  0  0  0
 20 21  1  0  0  0  0
 21 22  2  0  0  0  0
 22 18  1  0  0  0  0
 23 24  2  0  0  0  0
 24 14  1  0  0  0  0
M  END
>  <CHROM.1>
99.07841025,-62.86633421,122.98771862,-86.67664393,-165.30761909,-5.73339701
41.47838836,-45.68788041,6.81036902,3.13776702,-0.23754808,-1.55956681

>  <Name>
design_2

>  <RI>
0

>  <Rbt.Current_Directory>
/home/ziqiaoxu/icml18-jtnn/VAEdesign

>  <Rbt.Executable>
rbdock ($Id: //depot/dev/client3/rdock/2013.1/src/exe/rbdock.cxx#4 $)

>  <Rbt.Library>
libRbt.so (2013.1, Build901 2013/11/27)

>  <Rbt.Parameter_File>
/export/apps/rDock/src/rDock_2013.1_src//data/scripts/dock.prm

>  <Rbt.Receptor>
/home/ziqiaoxu/icml18-jtnn/VAEdesign/targets/RdRp-SARS-CoV-2/pocket_docking.prm

>  <SCORE>
-22.1515

>  <SCORE.INTER>
-19.5276

>  <SCORE.INTER.CONST>
1

>  <SCORE.INTER.POLAR>
-1.2749

>  <SCORE.INTER.REPUL>
0

>  <SCORE.INTER.ROT>
6

>  <SCORE.INTER.VDW>
-26.593

>  <SCORE.INTER.norm>
-0.813651

>  <SCORE.INTRA>
-2.62389

>  <SCORE.INTRA.DIHEDRAL>
-2.68611

>  <SCORE.INTRA.DIHEDRAL.0>
7.03278

>  <SCORE.INTRA.POLAR>
0

>  <SCORE.INTRA.POLAR.0>
0

>  <SCORE.INTRA.REPUL>
0

>  <SCORE.INTRA.REPUL.0>
0

>  <SCORE.INTRA.VDW>
-1.28083

>  <SCORE.INTRA.VDW.0>
-0.00761865

>  <SCORE.INTRA.norm>
-0.109329

>  <SCORE.RESTR>
0

>  <SCORE.RESTR.CAVITY>
0

>  <SCORE.RESTR.norm>
0

>  <SCORE.SYSTEM>
0

>  <SCORE.SYSTEM.CONST>
0

>  <SCORE.SYSTEM.DIHEDRAL>
0

>  <SCORE.SYSTEM.norm>
0

>  <SCORE.heavy>
24

>  <SCORE.norm>
-0.922979

$$$$
design_4
 OpenBabel05252019093D

 26 28  0  0  0  0  0  0  0  0999 V2000
   47.3724  -46.5335    1.1001 C   0  0  0  0  0  0  0  0  0  0  0  0
   45.9424  -46.3364    0.8456 C   0  0  0  0  0  0  0  0  0  0  0  0
   45.3571  -46.7525   -0.3665 C   0  0  0  0  0  0  0  0  0  0  0  0
   44.0129  -46.5649   -0.6075 C   0  0  0  0  0  0  0  0  0  0  0  0
   43.2533  -45.9680    0.3480 C   0  0  0  0  0  0  0  0  0  0  0  0
   43.8266  -45.5558    1.5459 C   0  0  0  0  0  0  0  0  0  0  0  0
   45.1867  -45.7367    1.8098 C   0  0  0  0  0  0  0  0  0  0  0  0
   45.7136  -45.2813    3.0789 C   0  0  1  0  0  0  0  0  0  0  0  0
   46.1598  -43.7940    2.9687 C   0  0  0  0  0  0  0  0  0  0  0  0
   44.9426  -45.4568    4.2488 N   0  0  0  0  0  0  0  0  0  0  0  0
   45.5314  -45.3191    5.5341 C   0  0  0  0  0  0  0  0  0  0  0  0
   46.7740  -45.0323    5.6359 O   0  0  0  0  0  0  0  0  0  0  0  0
   44.7773  -45.4909    6.7912 C   0  0  0  0  0  0  0  0  0  0  0  0
   43.5263  -44.6430    6.7929 C   0  0  0  0  0  0  0  0  0  0  0  0
   42.4247  -45.4683    7.2070 N   0  0  0  0  0  0  0  0  0  0  0  0
   41.9665  -45.4560    8.4641 C   0  0  0  0  0  0  0  0  0  0  0  0
   42.4909  -44.7043    9.3587 O   0  0  0  0  0  0  0  0  0  0  0  0
   40.9404  -46.2173    8.8772 N   0  0  0  0  0  0  0  0  0  0  0  0
   40.3366  -47.0379    7.9859 C   0  0  0  0  0  0  0  0  0  0  0  0
   39.2792  -47.8265    8.4044 C   0  0  0  0  0  0  0  0  0  0  0  0
   38.6692  -48.6599    7.4982 C   0  0  0  0  0  0  0  0  0  0  0  0
   39.1186  -48.6997    6.1828 C   0  0  0  0  0  0  0  0  0  0  0  0
   40.1663  -47.9103    5.7910 C   0  0  0  0  0  0  0  0  0  0  0  0
   40.7960  -47.0645    6.6831 C   0  0  0  0  0  0  0  0  0  0  0  0
   41.8526  -46.2647    6.3047 C   0  0  0  0  0  0  0  0  0  0  0  0
   42.2484  -46.3097    5.1133 O   0  0  0  0  0  0  0  0  0  0  0  0
  1  2  1  0  0  0  0
  2  3  2  0  0  0  0
  3  4  1  0  0  0  0
  4  5  2  0  0  0  0
  5  6  1  0  0  0  0
  6  7  2  0  0  0  0
  7  8  1  0  0  0  0
  7  2  1  0  0  0  0
  8  9  1  6  0  0  0
  8 10  1  0  0  0  0
 10 11  1  0  0  0  0
 11 12  2  0  0  0  0
 11 13  1  0  0  0  0
 13 14  1  0  0  0  0
 14 15  1  0  0  0  0
 15 16  1  0  0  0  0
 16 17  2  0  0  0  0
 16 18  1  0  0  0  0
 18 19  1  0  0  0  0
 19 20  2  0  0  0  0
 20 21  1  0  0  0  0
 21 22  2  0  0  0  0
 22 23  1  0  0  0  0
 23 24  2  0  0  0  0
 24 25  1  0  0  0  0
 24 19  1  0  0  0  0
 25 26  2  0  0  0  0
 25 15  1  0  0  0  0
M  END
>  <CHROM.1>
91.50060808,165.16078469,-51.70476916,131.85710655,98.88323799,43.23607092
-46.11356259,4.94966058,-0.81895194,0.49069928,1.31348094

>  <Name>
design_4

>  <RI>
0

>  <Rbt.Current_Directory>
/home/ziqiaoxu/icml18-jtnn/VAEdesign

>  <Rbt.Executable>
rbdock ($Id: //depot/dev/client3/rdock/2013.1/src/exe/rbdock.cxx#4 $)

>  <Rbt.Library>
libRbt.so (2013.1, Build901 2013/11/27)

>  <Rbt.Parameter_File>
/export/apps/rDock/src/rDock_2013.1_src//data/scripts/dock.prm

>  <Rbt.Receptor>
/home/ziqiaoxu/icml18-jtnn/VAEdesign/targets/RdRp-SARS-CoV-2/pocket_docking.prm

>  <SCORE>
-23.8129

>  <SCORE.INTER>
-16.1001

>  <SCORE.INTER.CONST>
1

>  <SCORE.INTER.POLAR>
0

>  <SCORE.INTER.REPUL>
0.0184845

>  <SCORE.INTER.ROT>
5

>  <SCORE.INTER.VDW>
-26.5925

>  <SCORE.INTER.norm>
-0.619234

>  <SCORE.INTRA>
-7.71283

>  <SCORE.INTRA.DIHEDRAL>
5.08132

>  <SCORE.INTRA.DIHEDRAL.0>
5.42106

>  <SCORE.INTRA.POLAR>
-0.991227

>  <SCORE.INTRA.POLAR.0>
0

>  <SCORE.INTRA.REPUL>
0

>  <SCORE.INTRA.REPUL.0>
0

>  <SCORE.INTRA.VDW>
-6.88332

>  <SCORE.INTRA.VDW.0>
5.46739

>  <SCORE.INTRA.norm>
-0.296647

>  <SCORE.RESTR>
0

>  <SCORE.RESTR.CAVITY>
0

>  <SCORE.RESTR.norm>
0

>  <SCORE.SYSTEM>
0

>  <SCORE.SYSTEM.CONST>
0

>  <SCORE.SYSTEM.DIHEDRAL>
0

>  <SCORE.SYSTEM.norm>
0

>  <SCORE.heavy>
26

>  <SCORE.norm>
-0.915881

$$$$
design_3
 OpenBabel05252019093D

 27 30  0  0  0  0  0  0  0  0999 V2000
   46.8490  -46.0333    3.5424 C   0  0  0  0  0  0  0  0  0  0  0  0
   46.4359  -45.4472    4.8564 C   0  0  0  0  0  0  0  0  0  0  0  0
   47.0996  -44.6065    5.6320 N   0  0  0  0  0  0  0  0  0  0  0  0
   46.3725  -44.3454    6.6974 N   0  0  0  0  0  0  0  0  0  0  0  0
   45.2319  -45.0420    6.5767 C   0  0  0  0  0  0  0  0  0  0  0  0
   44.1486  -45.0258    7.5644 C   0  0  0  0  0  0  0  0  0  0  0  0
   44.2420  -44.3287    8.7453 C   0  0  0  0  0  0  0  0  0  0  0  0
   43.2255  -44.3108    9.6700 C   0  0  0  0  0  0  0  0  0  0  0  0
   42.0532  -44.9975    9.4551 C   0  0  0  0  0  0  0  0  0  0  0  0
   40.9114  -45.0142   10.4161 C   0  0  0  0  0  0  0  0  0  0  0  0
   40.0215  -46.1054   10.0525 N   0  0  0  0  0  0  0  0  0  0  0  0
   38.9645  -45.9773    9.1140 C   0  0  0  0  0  0  0  0  0  0  0  0
   38.7952  -44.8362    8.5684 O   0  0  0  0  0  0  0  0  0  0  0  0
   38.0872  -47.1262    8.7782 C   0  0  0  0  0  0  0  0  0  0  0  0
   37.6323  -46.9507    7.3443 C   0  0  1  0  0  0  0  0  0  0  0  0
   36.7972  -45.8571    7.1702 O   0  0  0  0  0  0  0  0  0  0  0  0
   37.2993  -44.9925    6.2300 C   0  0  0  0  0  0  0  0  0  0  0  0
   36.8163  -43.8923    5.8160 O   0  0  0  0  0  0  0  0  0  0  0  0
   38.5501  -45.5687    5.7515 C   0  0  0  0  0  0  0  0  0  0  0  0
   39.4781  -45.1254    4.7983 C   0  0  0  0  0  0  0  0  0  0  0  0
   40.5813  -45.9004    4.5556 C   0  0  0  0  0  0  0  0  0  0  0  0
   40.8140  -47.0931    5.2079 C   0  0  0  0  0  0  0  0  0  0  0  0
   39.9011  -47.5179    6.1375 C   0  0  0  0  0  0  0  0  0  0  0  0
   38.7527  -46.7508    6.4175 C   0  0  0  0  0  0  0  0  0  0  0  0
   41.9516  -45.7076    8.2584 C   0  0  0  0  0  0  0  0  0  0  0  0
   42.9750  -45.7148    7.3470 C   0  0  0  0  0  0  0  0  0  0  0  0
   45.2493  -45.7392    5.4316 N   0  0  0  0  0  0  0  0  0  0  0  0
  1  2  1  0  0  0  0
  2  3  2  0  0  0  0
  3  4  1  0  0  0  0
  4  5  1  0  0  0  0
  5  6  1  0  0  0  0
  5 27  2  0  0  0  0
  6  7  2  0  0  0  0
  7  8  1  0  0  0  0
  8  9  2  0  0  0  0
  9 10  1  0  0  0  0
  9 25  1  0  0  0  0
 10 11  1  0  0  0  0
 11 12  1  0  0  0  0
 12 13  2  0  0  0  0
 12 14  1  0  0  0  0
 15 14  1  1  0  0  0
 15 16  1  0  0  0  0
 16 17  1  0  0  0  0
 17 18  2  0  0  0  0
 17 19  1  0  0  0  0
 19 20  2  0  0  0  0
 20 21  1  0  0  0  0
 21 22  2  0  0  0  0
 22 23  1  0  0  0  0
 23 24  2  0  0  0  0
 24 15  1  0  0  0  0
 24 19  1  0  0  0  0
 25 26  2  0  0  0  0
 26  6  1  0  0  0  0
 27  2  1  0  0  0  0
M  END
>  <CHROM.1>
-3.05152678,-164.49889516,-87.70600332,-149.71010359,-66.89793152,41.42058876
-45.54118543,7.05120526,0.15577060,-0.10685184,-1.70643374

>  <Name>
design_3

>  <RI>
0

>  <Rbt.Current_Directory>
/home/ziqiaoxu/icml18-jtnn/VAEdesign

>  <Rbt.Executable>
rbdock ($Id: //depot/dev/client3/rdock/2013.1/src/exe/rbdock.cxx#4 $)

>  <Rbt.Library>
libRbt.so (2013.1, Build901 2013/11/27)

>  <Rbt.Parameter_File>
/export/apps/rDock/src/rDock_2013.1_src//data/scripts/dock.prm

>  <Rbt.Receptor>
/home/ziqiaoxu/icml18-jtnn/VAEdesign/targets/RdRp-SARS-CoV-2/pocket_docking.prm

>  <SCORE>
-21.0756

>  <SCORE.INTER>
-20.4715

>  <SCORE.INTER.CONST>
1

>  <SCORE.INTER.POLAR>
-1.25898

>  <SCORE.INTER.REPUL>
0

>  <SCORE.INTER.ROT>
5

>  <SCORE.INTER.VDW>
-26.591

>  <SCORE.INTER.norm>
-0.758203

>  <SCORE.INTRA>
-0.604105

>  <SCORE.INTRA.DIHEDRAL>
1.04477

>  <SCORE.INTRA.DIHEDRAL.0>
3.02141

>  <SCORE.INTRA.POLAR>
0

>  <SCORE.INTRA.POLAR.0>
0

>  <SCORE.INTRA.REPUL>
0

>  <SCORE.INTRA.REPUL.0>
0

>  <SCORE.INTRA.VDW>
-1.12649

>  <SCORE.INTRA.VDW.0>
-0.97231

>  <SCORE.INTRA.norm>
-0.0223743

>  <SCORE.RESTR>
0

>  <SCORE.RESTR.CAVITY>
0

>  <SCORE.RESTR.norm>
0

>  <SCORE.SYSTEM>
0

>  <SCORE.SYSTEM.CONST>
0

>  <SCORE.SYSTEM.DIHEDRAL>
0

>  <SCORE.SYSTEM.norm>
0

>  <SCORE.heavy>
27

>  <SCORE.norm>
-0.780577

$$$$
design_13
 OpenBabel05252019093D

 22 23  0  0  0  0  0  0  0  0999 V2000
   45.1084  -44.6357    6.6152 C   0  0  0  0  0  0  0  0  0  0  0  0
   43.8738  -44.9883    7.3636 C   0  0  0  0  0  0  0  0  0  0  0  0
   42.9592  -45.8783    6.8411 C   0  0  0  0  0  0  0  0  0  0  0  0
   41.8201  -46.1940    7.5478 C   0  0  0  0  0  0  0  0  0  0  0  0
   41.5681  -45.6323    8.7860 C   0  0  0  0  0  0  0  0  0  0  0  0
   40.3688  -45.9584    9.5396 C   0  0  0  0  0  0  0  0  0  0  0  0
   40.2998  -45.6188   10.7284 O   0  0  0  0  0  0  0  0  0  0  0  0
   39.2789  -46.6742    8.8840 C   0  0  0  0  0  0  0  0  0  0  0  0
   38.3081  -45.8636    8.1291 C   0  0  0  0  0  0  0  0  0  0  0  0
   38.7618  -45.2243    6.8761 C   0  0  0  0  0  0  0  0  0  0  0  0
   37.8954  -44.0553    6.6057 C   0  0  0  0  0  0  0  0  0  0  0  0
   36.6816  -44.2680    5.9971 C   0  0  0  0  0  0  0  0  0  0  0  0
   35.8032  -43.2477    5.7025 C   0  0  0  0  0  0  0  0  0  0  0  0
   36.1298  -41.9514    6.0202 C   0  0  0  0  0  0  0  0  0  0  0  0
   35.0097  -40.6634    5.6427 S   0  0  0  0  0  0  0  0  0  0  0  0
   34.6896  -40.6859    3.9542 N   0  0  0  0  0  0  0  0  0  0  0  0
   33.7633  -40.8155    6.4662 O   0  0  0  0  0  0  0  0  0  0  0  0
   35.6288  -39.3395    6.0621 O   0  0  0  0  0  0  0  0  0  0  0  0
   37.3401  -41.7058    6.6313 C   0  0  0  0  0  0  0  0  0  0  0  0
   38.2029  -42.7516    6.9152 C   0  0  0  0  0  0  0  0  0  0  0  0
   42.5135  -44.7456    9.2693 C   0  0  0  0  0  0  0  0  0  0  0  0
   43.6593  -44.4084    8.5921 C   0  0  0  0  0  0  0  0  0  0  0  0
  1  2  1  0  0  0  0
  2  3  2  0  0  0  0
  3  4  1  0  0  0  0
  4  5  2  0  0  0  0
  5  6  1  0  0  0  0
  5 21  1  0  0  0  0
  6  7  2  0  0  0  0
  6  8  1  0  0  0  0
  8  9  1  0  0  0  0
  9 10  1  0  0  0  0
 10 11  1  0  0  0  0
 11 12  2  0  0  0  0
 12 13  1  0  0  0  0
 13 14  2  0  0  0  0
 14 15  1  0  0  0  0
 14 19  1  0  0  0  0
 15 16  1  0  0  0  0
 15 17  2  0  0  0  0
 15 18  2  0  0  0  0
 19 20  2  0  0  0  0
 20 11  1  0  0  0  0
 21 22  2  0  0  0  0
 22  2  1  0  0  0  0
M  END
>  <CHROM.1>
167.51629709,-84.92455380,69.67945012,-156.09077209,-82.19109353,-57.51707281
-59.46246680,38.74198100,-43.61595845,7.11644548,-0.60769403,0.09200030,-0.66395700

>  <Name>
design_13

>  <RI>
0

>  <Rbt.Current_Directory>
/home/ziqiaoxu/icml18-jtnn/VAEdesign

>  <Rbt.Executable>
rbdock ($Id: //depot/dev/client3/rdock/2013.1/src/exe/rbdock.cxx#4 $)

>  <Rbt.Library>
libRbt.so (2013.1, Build901 2013/11/27)

>  <Rbt.Parameter_File>
/export/apps/rDock/src/rDock_2013.1_src//data/scripts/dock.prm

>  <Rbt.Receptor>
/home/ziqiaoxu/icml18-jtnn/VAEdesign/targets/RdRp-SARS-CoV-2/pocket_docking.prm

>  <SCORE>
-19.0493

>  <SCORE.INTER>
-18.4898

>  <SCORE.INTER.CONST>
1

>  <SCORE.INTER.POLAR>
-1.26503

>  <SCORE.INTER.REPUL>
0

>  <SCORE.INTER.ROT>
7

>  <SCORE.INTER.VDW>
-26.5887

>  <SCORE.INTER.norm>
-0.840444

>  <SCORE.INTRA>
-0.559533

>  <SCORE.INTRA.DIHEDRAL>
1.39048

>  <SCORE.INTRA.DIHEDRAL.0>
5.0838

>  <SCORE.INTRA.POLAR>
0

>  <SCORE.INTRA.POLAR.0>
0

>  <SCORE.INTRA.REPUL>
0

>  <SCORE.INTRA.REPUL.0>
0

>  <SCORE.INTRA.VDW>
-1.25477

>  <SCORE.INTRA.VDW.0>
0.203339

>  <SCORE.INTRA.norm>
-0.0254333

>  <SCORE.RESTR>
0

>  <SCORE.RESTR.CAVITY>
0

>  <SCORE.RESTR.norm>
0

>  <SCORE.SYSTEM>
0

>  <SCORE.SYSTEM.CONST>
0

>  <SCORE.SYSTEM.DIHEDRAL>
0

>  <SCORE.SYSTEM.norm>
0

>  <SCORE.heavy>
22

>  <SCORE.norm>
-0.865877

$$$$
design_11
 OpenBabel05252019093D

 26 29  0  0  0  0  0  0  0  0999 V2000
   48.3916  -46.4187    3.6670 C   0  0  0  0  0  0  0  0  0  0  0  0
   47.1139  -46.2340    3.0173 N   0  0  0  0  0  0  0  0  0  0  0  0
   46.0977  -45.7154    3.7026 C   0  0  0  0  0  0  0  0  0  0  0  0
   46.1742  -45.3054    5.1020 C   0  0  0  0  0  0  0  0  0  0  0  0
   47.2070  -44.8353    5.6121 O   0  0  0  0  0  0  0  0  0  0  0  0
   45.0326  -45.4456    5.9165 N   0  0  0  0  0  0  0  0  0  0  0  0
   45.0016  -45.0721    7.3131 C   0  0  0  0  0  0  0  0  0  0  0  0
   43.7082  -44.4130    7.7148 C   0  0  0  0  0  0  0  0  0  0  0  0
   42.6015  -45.4114    7.5941 C   0  0  0  0  0  0  0  0  0  0  0  0
   42.3796  -46.2801    6.6026 N   0  0  0  0  0  0  0  0  0  0  0  0
   41.3060  -46.9983    6.8478 N   0  0  0  0  0  0  0  0  0  0  0  0
   40.8288  -46.5655    8.0453 C   0  0  0  0  0  0  0  0  0  0  0  0
   39.7311  -46.9583    8.7904 C   0  0  0  0  0  0  0  0  0  0  0  0
   39.4902  -46.3274    9.9920 C   0  0  0  0  0  0  0  0  0  0  0  0
   40.3353  -45.3228   10.4345 C   0  0  0  0  0  0  0  0  0  0  0  0
   41.4221  -44.9488    9.6752 C   0  0  0  0  0  0  0  0  0  0  0  0
   41.6278  -45.5876    8.5045 N   0  0  0  0  0  0  0  0  0  0  0  0
   44.9136  -45.5628    3.0409 N   0  0  0  0  0  0  0  0  0  0  0  0
   44.7434  -45.9082    1.7583 C   0  0  0  0  0  0  0  0  0  0  0  0
   43.5320  -45.7429    1.1110 C   0  0  0  0  0  0  0  0  0  0  0  0
   43.3823  -46.1034   -0.2003 C   0  0  0  0  0  0  0  0  0  0  0  0
   44.4358  -46.6499   -0.9394 C   0  0  0  0  0  0  0  0  0  0  0  0
   45.6433  -46.8147   -0.2942 C   0  0  0  0  0  0  0  0  0  0  0  0
   45.7859  -46.4495    1.0254 C   0  0  0  0  0  0  0  0  0  0  0  0
   46.9735  -46.5967    1.7082 C   0  0  0  0  0  0  0  0  0  0  0  0
   47.9622  -47.0830    1.1006 O   0  0  0  0  0  0  0  0  0  0  0  0
  1  2  1  0  0  0  0
  2  3  1  0  0  0  0
  3  4  1  0  0  0  0
  3 18  2  0  0  0  0
  4  5  2  0  0  0  0
  4  6  1  0  0  0  0
  6  7  1  0  0  0  0
  7  8  1  0  0  0  0
  8  9  1  0  0  0  0
  9 10  2  0  0  0  0
 10 11  1  0  0  0  0
 11 12  2  0  0  0  0
 12 13  1  0  0  0  0
 13 14  2  0  0  0  0
 14 15  1  0  0  0  0
 15 16  2  0  0  0  0
 16 17  1  0  0  0  0
 17  9  1  0  0  0  0
 17 12  1  0  0  0  0
 18 19  1  0  0  0  0
 19 20  2  0  0  0  0
 20 21  1  0  0  0  0
 21 22  2  0  0  0  0
 22 23  1  0  0  0  0
 23 24  2  0  0  0  0
 24 25  1  0  0  0  0
 24 19  1  0  0  0  0
 25 26  2  0  0  0  0
 25  2  1  0  0  0  0
M  END
>  <CHROM.1>
33.21963376,140.32622456,65.63931106,-43.79344989,44.13767509,-45.94773520
4.89084921,-0.98398899,0.14777923,1.40512256

>  <Name>
design_11

>  <RI>
0

>  <Rbt.Current_Directory>
/home/ziqiaoxu/icml18-jtnn/VAEdesign

>  <Rbt.Executable>
rbdock ($Id: //depot/dev/client3/rdock/2013.1/src/exe/rbdock.cxx#4 $)

>  <Rbt.Library>
libRbt.so (2013.1, Build901 2013/11/27)

>  <Rbt.Parameter_File>
/export/apps/rDock/src/rDock_2013.1_src//data/scripts/dock.prm

>  <Rbt.Receptor>
/home/ziqiaoxu/icml18-jtnn/VAEdesign/targets/RdRp-SARS-CoV-2/pocket_docking.prm

>  <SCORE>
-17.7217

>  <SCORE.INTER>
-17.1868

>  <SCORE.INTER.CONST>
1

>  <SCORE.INTER.POLAR>
0

>  <SCORE.INTER.REPUL>
0

>  <SCORE.INTER.ROT>
4

>  <SCORE.INTER.VDW>
-26.5868

>  <SCORE.INTER.norm>
-0.66103

>  <SCORE.INTRA>
-0.534893

>  <SCORE.INTRA.DIHEDRAL>
3.9642

>  <SCORE.INTRA.DIHEDRAL.0>
2.54832

>  <SCORE.INTRA.POLAR>
-0.498239

>  <SCORE.INTRA.POLAR.0>
0

>  <SCORE.INTRA.REPUL>
0.0573377

>  <SCORE.INTRA.REPUL.0>
0

>  <SCORE.INTRA.VDW>
-1.10967

>  <SCORE.INTRA.VDW.0>
0.825897

>  <SCORE.INTRA.norm>
-0.0205728

>  <SCORE.RESTR>
0

>  <SCORE.RESTR.CAVITY>
0

>  <SCORE.RESTR.norm>
0

>  <SCORE.SYSTEM>
0

>  <SCORE.SYSTEM.CONST>
0

>  <SCORE.SYSTEM.DIHEDRAL>
0

>  <SCORE.SYSTEM.norm>
0

>  <SCORE.heavy>
26

>  <SCORE.norm>
-0.681603

$$$$
design_14
 OpenBabel05252019093D

 23 24  0  0  0  0  0  0  0  0999 V2000
   38.9574  -48.7198    6.8463 C   0  0  0  0  0  0  0  0  0  0  0  0
   39.5226  -47.6651    7.7220 C   0  0  0  0  0  0  0  0  0  0  0  0
   38.8349  -47.2894    8.8475 C   0  0  0  0  0  0  0  0  0  0  0  0
   39.3814  -46.3066    9.6452 C   0  0  0  0  0  0  0  0  0  0  0  0
   40.5834  -45.7050    9.3400 C   0  0  0  0  0  0  0  0  0  0  0  0
   41.2893  -46.0846    8.1927 C   0  0  0  0  0  0  0  0  0  0  0  0
   42.5442  -45.4557    7.8705 C   0  0  0  0  0  0  0  0  0  0  0  0
   43.0384  -44.6248    8.7007 O   0  0  0  0  0  0  0  0  0  0  0  0
   43.2039  -45.7605    6.6587 N   0  0  0  0  0  0  0  0  0  0  0  0
   44.4659  -45.1279    6.3337 C   0  0  0  0  0  0  0  0  0  0  0  0
   44.8031  -45.3229    4.8958 C   0  0  0  0  0  0  0  0  0  0  0  0
   44.0990  -44.7176    4.0770 O   0  0  0  0  0  0  0  0  0  0  0  0
   45.8596  -46.1481    4.5225 N   0  0  0  0  0  0  0  0  0  0  0  0
   46.3426  -46.4625    3.2340 C   0  0  0  0  0  0  0  0  0  0  0  0
   47.4659  -47.2974    3.1634 C   0  0  0  0  0  0  0  0  0  0  0  0
   47.9649  -47.6112    1.9270 C   0  0  0  0  0  0  0  0  0  0  0  0
   47.4093  -47.1417    0.7606 C   0  0  0  0  0  0  0  0  0  0  0  0
   46.3087  -46.3235    0.8245 C   0  0  0  0  0  0  0  0  0  0  0  0
   45.7087  -45.8167   -0.4269 C   0  0  0  0  0  0  0  0  0  0  0  0
   45.7374  -44.2920   -0.4228 C   0  0  0  0  0  0  0  0  0  0  0  0
   44.2666  -46.2867   -0.4650 C   0  0  0  0  0  0  0  0  0  0  0  0
   45.7775  -45.9851    2.0581 C   0  0  0  0  0  0  0  0  0  0  0  0
   40.7279  -47.0584    7.4204 C   0  0  0  0  0  0  0  0  0  0  0  0
  1  2  1  0  0  0  0
  2  3  2  0  0  0  0
  3  4  1  0  0  0  0
  4  5  2  0  0  0  0
  5  6  1  0  0  0  0
  6  7  1  0  0  0  0
  6 23  2  0  0  0  0
  7  8  2  0  0  0  0
  7  9  1  0  0  0  0
  9 10  1  0  0  0  0
 10 11  1  0  0  0  0
 11 12  2  0  0  0  0
 11 13  1  0  0  0  0
 13 14  1  0  0  0  0
 14 15  2  0  0  0  0
 15 16  1  0  0  0  0
 16 17  2  0  0  0  0
 17 18  1  0  0  0  0
 18 19  1  0  0  0  0
 18 22  2  0  0  0  0
 19 20  1  0  0  0  0
 19 21  1  0  0  0  0
 22 14  1  0  0  0  0
 23  2  1  0  0  0  0
M  END
>  <CHROM.1>
5.11595029,-165.76223698,69.52769030,177.81930497,-120.54325491,43.66786854
-46.19712430,4.83410082,2.29604282,0.32779359,1.34622308

>  <Name>
design_14

>  <RI>
0

>  <Rbt.Current_Directory>
/home/ziqiaoxu/icml18-jtnn/VAEdesign

>  <Rbt.Executable>
rbdock ($Id: //depot/dev/client3/rdock/2013.1/src/exe/rbdock.cxx#4 $)

>  <Rbt.Library>
libRbt.so (2013.1, Build901 2013/11/27)

>  <Rbt.Parameter_File>
/export/apps/rDock/src/rDock_2013.1_src//data/scripts/dock.prm

>  <Rbt.Receptor>
/home/ziqiaoxu/icml18-jtnn/VAEdesign/targets/RdRp-SARS-CoV-2/pocket_docking.prm

>  <SCORE>
-19.8722

>  <SCORE.INTER>
-19.2201

>  <SCORE.INTER.CONST>
1

>  <SCORE.INTER.POLAR>
-0.89271

>  <SCORE.INTER.REPUL>
0

>  <SCORE.INTER.ROT>
5

>  <SCORE.INTER.VDW>
-26.5849

>  <SCORE.INTER.norm>
-0.835658

>  <SCORE.INTRA>
-0.652036

>  <SCORE.INTRA.DIHEDRAL>
-0.469175

>  <SCORE.INTRA.DIHEDRAL.0>
3.83457

>  <SCORE.INTRA.POLAR>
0

>  <SCORE.INTRA.POLAR.0>
0

>  <SCORE.INTRA.REPUL>
0

>  <SCORE.INTRA.REPUL.0>
0

>  <SCORE.INTRA.VDW>
-0.417449

>  <SCORE.INTRA.VDW.0>
1.32567

>  <SCORE.INTRA.norm>
-0.0283494

>  <SCORE.RESTR>
0

>  <SCORE.RESTR.CAVITY>
0

>  <SCORE.RESTR.norm>
0

>  <SCORE.SYSTEM>
0

>  <SCORE.SYSTEM.CONST>
0

>  <SCORE.SYSTEM.DIHEDRAL>
0

>  <SCORE.SYSTEM.norm>
0

>  <SCORE.heavy>
23

>  <SCORE.norm>
-0.864007

$$$$
design_10
 OpenBabel05252019093D

 26 28  0  0  0  0  0  0  0  0999 V2000
   43.6792  -45.8864   -0.6810 N   0  0  0  0  0  0  0  0  0  0  0  0
   44.1442  -45.8024    0.6857 C   0  0  0  0  0  0  0  0  0  0  0  0
   43.3685  -45.2682    1.4649 O   0  0  0  0  0  0  0  0  0  0  0  0
   45.4403  -46.3362    1.0142 C   0  0  0  0  0  0  0  0  0  0  0  0
   46.2206  -46.8153   -0.0643 C   0  0  0  0  0  0  0  0  0  0  0  0
   47.4855  -47.2730    0.1548 C   0  0  0  0  0  0  0  0  0  0  0  0
   48.0284  -47.2811    1.4124 C   0  0  0  0  0  0  0  0  0  0  0  0
   47.2597  -46.8141    2.4551 C   0  0  0  0  0  0  0  0  0  0  0  0
   45.9512  -46.3315    2.2906 C   0  0  0  0  0  0  0  0  0  0  0  0
   45.1772  -45.9496    3.4081 N   0  0  0  0  0  0  0  0  0  0  0  0
   45.6234  -45.6708    4.7213 C   0  0  0  0  0  0  0  0  0  0  0  0
   46.8037  -45.7098    5.1067 O   0  0  0  0  0  0  0  0  0  0  0  0
   44.6434  -45.2971    5.7535 C   0  0  0  0  0  0  0  0  0  0  0  0
   43.3292  -45.0705    5.4713 C   0  0  0  0  0  0  0  0  0  0  0  0
   42.3924  -44.7066    6.4341 C   0  0  0  0  0  0  0  0  0  0  0  0
   42.8228  -44.5721    7.7286 C   0  0  0  0  0  0  0  0  0  0  0  0
   41.8647  -44.1796    8.8298 C   0  0  0  0  0  0  0  0  0  0  0  0
   41.4119  -45.3234    9.4883 O   0  0  0  0  0  0  0  0  0  0  0  0
   40.4816  -46.1415    8.8866 C   0  0  0  0  0  0  0  0  0  0  0  0
   39.2052  -46.1892    9.4049 C   0  0  0  0  0  0  0  0  0  0  0  0
   38.2294  -47.0067    8.8246 C   0  0  0  0  0  0  0  0  0  0  0  0
   38.5695  -47.7630    7.7251 C   0  0  0  0  0  0  0  0  0  0  0  0
   39.8404  -47.7288    7.1924 C   0  0  0  0  0  0  0  0  0  0  0  0
   40.7994  -46.9038    7.7897 C   0  0  0  0  0  0  0  0  0  0  0  0
   44.1460  -44.7953    8.0428 C   0  0  0  0  0  0  0  0  0  0  0  0
   45.0584  -45.1581    7.0564 C   0  0  0  0  0  0  0  0  0  0  0  0
  1  2  1  0  0  0  0
  2  3  2  0  0  0  0
  2  4  1  0  0  0  0
  4  5  2  0  0  0  0
  5  6  1  0  0  0  0
  6  7  2  0  0  0  0
  7  8  1  0  0  0  0
  8  9  2  0  0  0  0
  9 10  1  0  0  0  0
  9  4  1  0  0  0  0
 10 11  1  0  0  0  0
 11 12  2  0  0  0  0
 11 13  1  0  0  0  0
 13 14  2  0  0  0  0
 14 15  1  0  0  0  0
 15 16  2  0  0  0  0
 16 17  1  0  0  0  0
 16 25  1  0  0  0  0
 17 18  1  0  0  0  0
 18 19  1  0  0  0  0
 19 20  2  0  0  0  0
 20 21  1  0  0  0  0
 21 22  2  0  0  0  0
 22 23  1  0  0  0  0
 23 24  2  0  0  0  0
 24 19  1  0  0  0  0
 25 26  2  0  0  0  0
 26 13  1  0  0  0  0
M  END
>  <CHROM.1>
4.98795527,-167.75915709,-6.99634890,96.40537481,-74.87738558,-110.47658321
43.53506598,-45.98313027,4.99246540,0.90486889,-0.21635502,-1.78229540

>  <Name>
design_10

>  <RI>
0

>  <Rbt.Current_Directory>
/home/ziqiaoxu/icml18-jtnn/VAEdesign

>  <Rbt.Executable>
rbdock ($Id: //depot/dev/client3/rdock/2013.1/src/exe/rbdock.cxx#4 $)

>  <Rbt.Library>
libRbt.so (2013.1, Build901 2013/11/27)

>  <Rbt.Parameter_File>
/export/apps/rDock/src/rDock_2013.1_src//data/scripts/dock.prm

>  <Rbt.Receptor>
/home/ziqiaoxu/icml18-jtnn/VAEdesign/targets/RdRp-SARS-CoV-2/pocket_docking.prm

>  <SCORE>
-19.2942

>  <SCORE.INTER>
-18.4452

>  <SCORE.INTER.CONST>
1

>  <SCORE.INTER.POLAR>
-0.959166

>  <SCORE.INTER.REPUL>
0

>  <SCORE.INTER.ROT>
6

>  <SCORE.INTER.VDW>
-26.5841

>  <SCORE.INTER.norm>
-0.709432

>  <SCORE.INTRA>
-0.84898

>  <SCORE.INTRA.DIHEDRAL>
3.31897

>  <SCORE.INTRA.DIHEDRAL.0>
3.84706

>  <SCORE.INTRA.POLAR>
0

>  <SCORE.INTRA.POLAR.0>
0

>  <SCORE.INTRA.REPUL>
0

>  <SCORE.INTRA.REPUL.0>
0

>  <SCORE.INTRA.VDW>
-2.50847

>  <SCORE.INTRA.VDW.0>
1.52228

>  <SCORE.INTRA.norm>
-0.0326531

>  <SCORE.RESTR>
0

>  <SCORE.RESTR.CAVITY>
0

>  <SCORE.RESTR.norm>
0

>  <SCORE.SYSTEM>
0

>  <SCORE.SYSTEM.CONST>
0

>  <SCORE.SYSTEM.DIHEDRAL>
0

>  <SCORE.SYSTEM.norm>
0

>  <SCORE.heavy>
26

>  <SCORE.norm>
-0.742085

$$$$
design_1
 OpenBabel05252019093D

 22 23  0  0  0  0  0  0  0  0999 V2000
   41.4159  -44.4624   10.8760 C   0  0  0  0  0  0  0  0  0  0  0  0
   40.8895  -45.2885    9.7405 C   0  0  0  0  0  0  0  0  0  0  0  0
   39.7043  -45.9828    9.8450 C   0  0  0  0  0  0  0  0  0  0  0  0
   39.2409  -46.7355    8.7875 C   0  0  0  0  0  0  0  0  0  0  0  0
   39.9076  -46.8460    7.5848 C   0  0  0  0  0  0  0  0  0  0  0  0
   39.2967  -47.7580    6.2426 S   0  0  0  0  0  0  0  0  0  0  0  0
   40.3976  -48.0397    5.2283 O   0  0  0  0  0  0  0  0  0  0  0  0
   38.8604  -49.1502    6.6941 O   0  0  0  0  0  0  0  0  0  0  0  0
   37.9528  -47.0190    5.4965 N   0  0  0  0  0  0  0  0  0  0  0  0
   37.5054  -45.7082    5.6753 C   0  0  0  0  0  0  0  0  0  0  0  0
   36.1867  -45.4163    5.2748 C   0  0  0  0  0  0  0  0  0  0  0  0
   35.6916  -44.1497    5.4491 C   0  0  0  0  0  0  0  0  0  0  0  0
   36.4291  -43.1391    6.0023 C   0  0  0  0  0  0  0  0  0  0  0  0
   35.6673  -41.5637    6.1661 S   0  0  0  0  0  0  0  0  0  0  0  0
   35.1286  -41.1105    4.5733 N   0  0  0  0  0  0  0  0  0  0  0  0
   34.4595  -41.6753    7.0864 O   0  0  0  0  0  0  0  0  0  0  0  0
   36.6778  -40.6097    6.6995 O   0  0  0  0  0  0  0  0  0  0  0  0
   37.7011  -43.3969    6.3947 C   0  0  0  0  0  0  0  0  0  0  0  0
   38.2276  -44.6828    6.2262 C   0  0  0  0  0  0  0  0  0  0  0  0
   41.1121  -46.1321    7.4972 C   0  0  0  0  0  0  0  0  0  0  0  0
   41.5800  -45.3784    8.5510 C   0  0  0  0  0  0  0  0  0  0  0  0
   42.8669  -44.6233    8.4403 C   0  0  0  0  0  0  0  0  0  0  0  0
  1  2  1  0  0  0  0
  2  3  2  0  0  0  0
  3  4  1  0  0  0  0
  4  5  2  0  0  0  0
  5  6  1  0  0  0  0
  5 20  1  0  0  0  0
  6  7  2  0  0  0  0
  6  8  2  0  0  0  0
  6  9  1  0  0  0  0
  9 10  1  0  0  0  0
 10 11  2  0  0  0  0
 11 12  1  0  0  0  0
 12 13  2  0  0  0  0
 13 14  1  0  0  0  0
 13 18  1  0  0  0  0
 14 15  1  0  0  0  0
 14 16  2  0  0  0  0
 14 17  2  0  0  0  0
 18 19  2  0  0  0  0
 19 10  1  0  0  0  0
 20 21  2  0  0  0  0
 21 22  1  0  0  0  0
 21  2  1  0  0  0  0
M  END
>  <CHROM.1>
-163.30449155,13.69691692,-162.30563671,-55.89433215,-70.12501453,38.34878943
-44.88570979,6.90008352,-0.51278997,-0.66696142,0.45842870

>  <Name>
design_1

>  <RI>
0

>  <Rbt.Current_Directory>
/home/ziqiaoxu/icml18-jtnn/VAEdesign

>  <Rbt.Executable>
rbdock ($Id: //depot/dev/client3/rdock/2013.1/src/exe/rbdock.cxx#4 $)

>  <Rbt.Library>
libRbt.so (2013.1, Build901 2013/11/27)

>  <Rbt.Parameter_File>
/export/apps/rDock/src/rDock_2013.1_src//data/scripts/dock.prm

>  <Rbt.Receptor>
/home/ziqiaoxu/icml18-jtnn/VAEdesign/targets/RdRp-SARS-CoV-2/pocket_docking.prm

>  <SCORE>
-26.6447

>  <SCORE.INTER>
-22.9981

>  <SCORE.INTER.CONST>
1

>  <SCORE.INTER.POLAR>
-2.14135

>  <SCORE.INTER.REPUL>
0.0907241

>  <SCORE.INTER.ROT>
5

>  <SCORE.INTER.VDW>
-26.5711

>  <SCORE.INTER.norm>
-1.04537

>  <SCORE.INTRA>
-3.64664

>  <SCORE.INTRA.DIHEDRAL>
-7.11441

>  <SCORE.INTRA.DIHEDRAL.0>
11.9594

>  <SCORE.INTRA.POLAR>
0

>  <SCORE.INTRA.POLAR.0>
0

>  <SCORE.INTRA.REPUL>
0

>  <SCORE.INTRA.REPUL.0>
0

>  <SCORE.INTRA.VDW>
-0.0894317

>  <SCORE.INTRA.VDW.0>
-2.91679

>  <SCORE.INTRA.norm>
-0.165756

>  <SCORE.RESTR>
0

>  <SCORE.RESTR.CAVITY>
0

>  <SCORE.RESTR.norm>
0

>  <SCORE.SYSTEM>
0

>  <SCORE.SYSTEM.CONST>
0

>  <SCORE.SYSTEM.DIHEDRAL>
0

>  <SCORE.SYSTEM.norm>
0

>  <SCORE.heavy>
22

>  <SCORE.norm>
-1.21112

$$$$
design_6
 OpenBabel05252019093D

 23 25  0  0  0  0  0  0  0  0999 V2000
   42.9630  -45.6574    6.3911 O   0  0  0  0  0  0  0  0  0  0  0  0
   42.0605  -46.1702    5.6973 C   0  0  0  0  0  0  0  0  0  0  0  0
   42.1208  -46.0847    4.2908 N   0  0  0  0  0  0  0  0  0  0  0  0
   43.2322  -45.4121    3.6307 C   0  0  0  0  0  0  0  0  0  0  0  0
   42.8962  -44.0190    3.1786 C   0  0  0  0  0  0  0  0  0  0  0  0
   42.5341  -43.9215    1.4131 S   0  0  0  0  0  0  0  0  0  0  0  0
   43.7316  -44.9662    0.5553 C   0  0  0  0  0  0  0  0  0  0  0  0
   43.3039  -46.1637   -0.0195 C   0  0  0  0  0  0  0  0  0  0  0  0
   44.1627  -47.0128   -0.6889 C   0  0  0  0  0  0  0  0  0  0  0  0
   45.4886  -46.6493   -0.7843 C   0  0  0  0  0  0  0  0  0  0  0  0
   45.9497  -45.4754   -0.2307 C   0  0  0  0  0  0  0  0  0  0  0  0
   45.0616  -44.6414    0.4372 C   0  0  0  0  0  0  0  0  0  0  0  0
   40.9743  -46.8355    6.3852 C   0  0  0  0  0  0  0  0  0  0  0  0
   40.2396  -47.8561    5.7762 C   0  0  0  0  0  0  0  0  0  0  0  0
   39.2299  -48.4933    6.4533 C   0  0  0  0  0  0  0  0  0  0  0  0
   38.5742  -49.4198    5.8751 O   0  0  0  0  0  0  0  0  0  0  0  0
   38.9346  -48.1401    7.7155 N   0  0  0  0  0  0  0  0  0  0  0  0
   39.6424  -47.1506    8.3139 C   0  0  0  0  0  0  0  0  0  0  0  0
   39.3204  -46.7709    9.6153 C   0  0  0  0  0  0  0  0  0  0  0  0
   40.0074  -45.7548   10.2471 C   0  0  0  0  0  0  0  0  0  0  0  0
   41.0399  -45.0710    9.6271 C   0  0  0  0  0  0  0  0  0  0  0  0
   41.3472  -45.4622    8.3299 C   0  0  0  0  0  0  0  0  0  0  0  0
   40.6638  -46.4724    7.6987 C   0  0  0  0  0  0  0  0  0  0  0  0
  1  2  2  0  0  0  0
  2  3  1  0  0  0  0
  2 13  1  0  0  0  0
  3  4  1  0  0  0  0
  4  5  1  0  0  0  0
  5  6  1  0  0  0  0
  6  7  1  0  0  0  0
  7  8  2  0  0  0  0
  8  9  1  0  0  0  0
  9 10  2  0  0  0  0
 10 11  1  0  0  0  0
 11 12  2  0  0  0  0
 12  7  1  0  0  0  0
 13 14  2  0  0  0  0
 14 15  1  0  0  0  0
 15 16  2  0  0  0  0
 15 17  1  0  0  0  0
 17 18  1  0  0  0  0
 18 19  2  0  0  0  0
 19 20  1  0  0  0  0
 20 21  2  0  0  0  0
 21 22  1  0  0  0  0
 22 23  2  0  0  0  0
 23 13  1  0  0  0  0
 23 18  1  0  0  0  0
M  END
>  <CHROM.1>
-100.58520158,-101.01077082,-41.44877166,109.02482386,-154.10866149,41.90897914
-46.12683861,4.59223737,-2.40151811,-0.87975953,-2.07503808

>  <Name>
design_6

>  <RI>
0

>  <Rbt.Current_Directory>
/home/ziqiaoxu/icml18-jtnn/VAEdesign

>  <Rbt.Executable>
rbdock ($Id: //depot/dev/client3/rdock/2013.1/src/exe/rbdock.cxx#4 $)

>  <Rbt.Library>
libRbt.so (2013.1, Build901 2013/11/27)

>  <Rbt.Parameter_File>
/export/apps/rDock/src/rDock_2013.1_src//data/scripts/dock.prm

>  <Rbt.Receptor>
/home/ziqiaoxu/icml18-jtnn/VAEdesign/targets/RdRp-SARS-CoV-2/pocket_docking.prm

>  <SCORE>
-20.546

>  <SCORE.INTER>
-19.8732

>  <SCORE.INTER.CONST>
1

>  <SCORE.INTER.POLAR>
-1.08972

>  <SCORE.INTER.REPUL>
0

>  <SCORE.INTER.ROT>
5

>  <SCORE.INTER.VDW>
-26.5682

>  <SCORE.INTER.norm>
-0.864054

>  <SCORE.INTRA>
-0.672741

>  <SCORE.INTRA.DIHEDRAL>
-5.66906

>  <SCORE.INTRA.DIHEDRAL.0>
16.0014

>  <SCORE.INTRA.POLAR>
0

>  <SCORE.INTRA.POLAR.0>
0

>  <SCORE.INTRA.REPUL>
0

>  <SCORE.INTRA.REPUL.0>
0

>  <SCORE.INTRA.VDW>
2.16179

>  <SCORE.INTRA.VDW.0>
-2.13601

>  <SCORE.INTRA.norm>
-0.0292496

>  <SCORE.RESTR>
0

>  <SCORE.RESTR.CAVITY>
0

>  <SCORE.RESTR.norm>
0

>  <SCORE.SYSTEM>
0

>  <SCORE.SYSTEM.CONST>
0

>  <SCORE.SYSTEM.DIHEDRAL>
0

>  <SCORE.SYSTEM.norm>
0

>  <SCORE.heavy>
23

>  <SCORE.norm>
-0.893303

$$$$
design_17
 OpenBabel05252019093D

 23 25  0  0  0  0  0  0  0  0999 V2000
   39.6307  -48.5645    6.6694 C   0  0  0  0  0  0  0  0  0  0  0  0
   39.9332  -47.4675    7.6551 C   0  0  0  0  0  0  0  0  0  0  0  0
   41.0986  -46.7690    7.4707 C   0  0  0  0  0  0  0  0  0  0  0  0
   41.3831  -45.7520    8.3806 C   0  0  0  0  0  0  0  0  0  0  0  0
   40.5406  -45.4502    9.4240 C   0  0  0  0  0  0  0  0  0  0  0  0
   40.8875  -44.1506   10.5992 S   0  0  0  0  0  0  0  0  0  0  0  0
   39.6507  -42.8474   10.3545 C   0  0  0  0  0  0  0  0  0  0  0  0
   39.7987  -42.2367    8.9737 C   0  0  0  0  0  0  0  0  0  0  0  0
   39.9631  -43.0777    8.0618 O   0  0  0  0  0  0  0  0  0  0  0  0
   39.7379  -40.8458    8.8677 N   0  0  0  0  0  0  0  0  0  0  0  0
   39.8461  -40.0439    7.7121 C   0  0  0  0  0  0  0  0  0  0  0  0
   39.8464  -40.6283    6.4357 C   0  0  0  0  0  0  0  0  0  0  0  0
   39.9475  -39.9044    5.2812 C   0  0  0  0  0  0  0  0  0  0  0  0
   40.0552  -38.5291    5.3605 C   0  0  0  0  0  0  0  0  0  0  0  0
   40.1621  -37.7335    4.1924 N   0  0  0  0  0  0  0  0  0  0  0  0
   40.2731  -36.3955    4.1877 C   0  0  0  0  0  0  0  0  0  0  0  0
   40.3536  -35.9906    2.8529 C   0  0  0  0  0  0  0  0  0  0  0  0
   40.2854  -37.1344    2.0948 C   0  0  0  0  0  0  0  0  0  0  0  0
   40.1720  -38.1435    2.9412 N   0  0  0  0  0  0  0  0  0  0  0  0
   40.0555  -37.9526    6.6033 C   0  0  0  0  0  0  0  0  0  0  0  0
   39.9524  -38.6894    7.7852 C   0  0  0  0  0  0  0  0  0  0  0  0
   39.3801  -46.1898    9.5580 C   0  0  0  0  0  0  0  0  0  0  0  0
   39.0544  -47.2078    8.6814 C   0  0  0  0  0  0  0  0  0  0  0  0
  1  2  1  0  0  0  0
  2  3  2  0  0  0  0
  3  4  1  0  0  0  0
  4  5  2  0  0  0  0
  5  6  1  0  0  0  0
  5 22  1  0  0  0  0
  6  7  1  0  0  0  0
  7  8  1  0  0  0  0
  8  9  2  0  0  0  0
  8 10  1  0  0  0  0
 10 11  1  0  0  0  0
 11 12  2  0  0  0  0
 12 13  1  0  0  0  0
 13 14  2  0  0  0  0
 14 15  1  0  0  0  0
 14 20  1  0  0  0  0
 15 16  1  0  0  0  0
 16 17  2  0  0  0  0
 17 18  1  0  0  0  0
 18 19  2  0  0  0  0
 19 15  1  0  0  0  0
 20 21  2  0  0  0  0
 21 11  1  0  0  0  0
 22 23  2  0  0  0  0
 23  2  1  0  0  0  0
M  END
>  <CHROM.1>
112.76484123,-64.07109606,44.24632078,9.34140829,-179.83263615,40.12774280
-41.96203820,7.17622785,1.45659751,1.56249831,2.76043818

>  <Name>
design_17

>  <RI>
0

>  <Rbt.Current_Directory>
/home/ziqiaoxu/icml18-jtnn/VAEdesign

>  <Rbt.Executable>
rbdock ($Id: //depot/dev/client3/rdock/2013.1/src/exe/rbdock.cxx#4 $)

>  <Rbt.Library>
libRbt.so (2013.1, Build901 2013/11/27)

>  <Rbt.Parameter_File>
/export/apps/rDock/src/rDock_2013.1_src//data/scripts/dock.prm

>  <Rbt.Receptor>
/home/ziqiaoxu/icml18-jtnn/VAEdesign/targets/RdRp-SARS-CoV-2/pocket_docking.prm

>  <SCORE>
-18.0228

>  <SCORE.INTER>
-19.4094

>  <SCORE.INTER.CONST>
1

>  <SCORE.INTER.POLAR>
-0.953426

>  <SCORE.INTER.REPUL>
0

>  <SCORE.INTER.ROT>
5

>  <SCORE.INTER.VDW>
-26.5677

>  <SCORE.INTER.norm>
-0.843885

>  <SCORE.INTRA>
1.38659

>  <SCORE.INTRA.DIHEDRAL>
0.190889

>  <SCORE.INTRA.DIHEDRAL.0>
3.50689

>  <SCORE.INTRA.POLAR>
0

>  <SCORE.INTRA.POLAR.0>
0

>  <SCORE.INTRA.REPUL>
0

>  <SCORE.INTRA.REPUL.0>
0

>  <SCORE.INTRA.VDW>
1.29115

>  <SCORE.INTRA.VDW.0>
-2.24146

>  <SCORE.INTRA.norm>
0.0602866

>  <SCORE.RESTR>
0

>  <SCORE.RESTR.CAVITY>
0

>  <SCORE.RESTR.norm>
0

>  <SCORE.SYSTEM>
0

>  <SCORE.SYSTEM.CONST>
0

>  <SCORE.SYSTEM.DIHEDRAL>
0

>  <SCORE.SYSTEM.norm>
0

>  <SCORE.heavy>
23

>  <SCORE.norm>
-0.783598

$$$$
design_17
 OpenBabel05252019093D

 25 27  0  0  0  0  0  0  0  0999 V2000
   39.5439  -45.8142    9.5010 C   0  0  0  0  0  0  0  0  0  0  0  0
   38.9542  -46.4474    8.2416 C   0  0  0  0  0  0  0  0  0  0  0  0
   38.0400  -45.9338    7.4642 N   0  0  0  0  0  0  0  0  0  0  0  0
   37.6259  -46.6085    6.3869 C   0  0  0  0  0  0  0  0  0  0  0  0
   36.6317  -45.8955    5.5222 C   0  0  0  0  0  0  0  0  0  0  0  0
   36.9156  -44.6316    5.1128 O   0  0  0  0  0  0  0  0  0  0  0  0
   36.7636  -43.4068    5.6804 C   0  0  0  0  0  0  0  0  0  0  0  0
   35.5388  -42.8353    5.9569 C   0  0  0  0  0  0  0  0  0  0  0  0
   35.4166  -41.5844    6.5630 C   0  0  0  0  0  0  0  0  0  0  0  0
   36.5510  -40.8945    6.8932 C   0  0  0  0  0  0  0  0  0  0  0  0
   37.8304  -41.4559    6.6139 C   0  0  0  0  0  0  0  0  0  0  0  0
   38.9056  -40.4888    6.9744 C   0  0  0  0  0  0  0  0  0  0  0  0
   39.5578  -40.6385    7.9883 O   0  0  0  0  0  0  0  0  0  0  0  0
   39.0786  -39.4391    6.0690 N   0  0  0  0  0  0  0  0  0  0  0  0
   39.7320  -38.2937    5.7448 C   0  0  0  0  0  0  0  0  0  0  0  0
   40.1125  -37.7311    4.4539 C   0  0  0  0  0  0  0  0  0  0  0  0
   39.7926  -36.4531    4.0149 C   0  0  0  0  0  0  0  0  0  0  0  0
   39.8841  -36.1273    2.6471 C   0  0  0  0  0  0  0  0  0  0  0  0
   40.2928  -37.0585    1.7378 C   0  0  0  0  0  0  0  0  0  0  0  0
   40.6158  -38.3182    2.1620 C   0  0  0  0  0  0  0  0  0  0  0  0
   40.5354  -38.6666    3.4704 C   0  0  0  0  0  0  0  0  0  0  0  0
   40.8935  -39.9028    3.9436 F   0  0  0  0  0  0  0  0  0  0  0  0
   37.9096  -42.6518    6.0385 C   0  0  0  0  0  0  0  0  0  0  0  0
   38.1950  -47.7990    6.1680 C   0  0  0  0  0  0  0  0  0  0  0  0
   39.2994  -47.9337    7.4870 S   0  0  0  0  0  0  0  0  0  0  0  0
  1  2  1  0  0  0  0
  2  3  2  0  0  0  0
  3  4  1  0  0  0  0
  4  5  1  0  0  0  0
  4 24  2  0  0  0  0
  5  6  1  0  0  0  0
  6  7  1  0  0  0  0
  7  8  2  0  0  0  0
  8  9  1  0  0  0  0
  9 10  2  0  0  0  0
 10 11  1  0  0  0  0
 11 12  1  0  0  0  0
 11 23  2  0  0  0  0
 12 13  2  0  0  0  0
 12 14  1  0  0  0  0
 14 15  1  0  0  0  0
 15 16  1  0  0  0  0
 16 17  2  0  0  0  0
 17 18  1  0  0  0  0
 18 19  2  0  0  0  0
 19 20  1  0  0  0  0
 20 21  2  0  0  0  0
 21 22  1  0  0  0  0
 21 16  1  0  0  0  0
 23  7  1  0  0  0  0
 24 25  1  0  0  0  0
 25  2  1  0  0  0  0
M  END
>  <CHROM.1>
51.15846710,-83.91644834,-66.04298266,103.71103284,147.30875034,125.99214057
38.65603823,-42.20031050,5.81270699,-1.75844989,0.23306404,-0.32857707

>  <Name>
design_17

>  <RI>
0

>  <Rbt.Current_Directory>
/home/ziqiaoxu/icml18-jtnn/VAEdesign

>  <Rbt.Executable>
rbdock ($Id: //depot/dev/client3/rdock/2013.1/src/exe/rbdock.cxx#4 $)

>  <Rbt.Library>
libRbt.so (2013.1, Build901 2013/11/27)

>  <Rbt.Parameter_File>
/export/apps/rDock/src/rDock_2013.1_src//data/scripts/dock.prm

>  <Rbt.Receptor>
/home/ziqiaoxu/icml18-jtnn/VAEdesign/targets/RdRp-SARS-CoV-2/pocket_docking.prm

>  <SCORE>
-17.0746

>  <SCORE.INTER>
-18.0109

>  <SCORE.INTER.CONST>
1

>  <SCORE.INTER.POLAR>
-0.836759

>  <SCORE.INTER.REPUL>
0

>  <SCORE.INTER.ROT>
6

>  <SCORE.INTER.VDW>
-26.566

>  <SCORE.INTER.norm>
-0.720437

>  <SCORE.INTRA>
0.936309

>  <SCORE.INTRA.DIHEDRAL>
5.01897

>  <SCORE.INTRA.DIHEDRAL.0>
15.7286

>  <SCORE.INTRA.POLAR>
0

>  <SCORE.INTRA.POLAR.0>
0

>  <SCORE.INTRA.REPUL>
0

>  <SCORE.INTRA.REPUL.0>
0

>  <SCORE.INTRA.VDW>
-1.57317

>  <SCORE.INTRA.VDW.0>
-1.27934

>  <SCORE.INTRA.norm>
0.0374524

>  <SCORE.RESTR>
0

>  <SCORE.RESTR.CAVITY>
0

>  <SCORE.RESTR.norm>
0

>  <SCORE.SYSTEM>
0

>  <SCORE.SYSTEM.CONST>
0

>  <SCORE.SYSTEM.DIHEDRAL>
0

>  <SCORE.SYSTEM.norm>
0

>  <SCORE.heavy>
25

>  <SCORE.norm>
-0.682985

$$$$
design_14
 OpenBabel05252019093D

 22 24  0  0  0  0  0  0  0  0999 V2000
   40.6416  -45.1330   10.0654 C   0  0  0  0  0  0  0  0  0  0  0  0
   40.2501  -46.1040    9.0410 C   0  0  0  0  0  0  0  0  0  0  0  0
   39.0134  -46.7668    9.1451 C   0  0  0  0  0  0  0  0  0  0  0  0
   38.6363  -47.6831    8.1848 C   0  0  0  0  0  0  0  0  0  0  0  0
   39.4401  -47.9659    7.1261 C   0  0  0  0  0  0  0  0  0  0  0  0
   40.6617  -47.3052    7.0324 C   0  0  0  0  0  0  0  0  0  0  0  0
   41.0488  -46.3900    7.9831 C   0  0  0  0  0  0  0  0  0  0  0  0
   42.3725  -45.7545    7.7824 C   0  0  0  0  0  0  0  0  0  0  0  0
   43.2016  -45.9196    6.7636 N   0  0  0  0  0  0  0  0  0  0  0  0
   44.3328  -45.2996    6.7332 C   0  0  0  0  0  0  0  0  0  0  0  0
   45.3113  -45.4860    5.5752 C   0  0  0  0  0  0  0  0  0  0  0  0
   44.7373  -44.9228    4.3419 C   0  0  0  0  0  0  0  0  0  0  0  0
   44.9864  -43.7199    4.0788 O   0  0  0  0  0  0  0  0  0  0  0  0
   43.9327  -45.6410    3.4427 N   0  0  0  0  0  0  0  0  0  0  0  0
   43.3528  -45.1231    2.2392 C   0  0  0  0  0  0  0  0  0  0  0  0
   44.0734  -45.7477    1.0655 C   0  0  0  0  0  0  0  0  0  0  0  0
   43.4726  -46.3342   -0.0184 C   0  0  0  0  0  0  0  0  0  0  0  0
   44.2704  -46.8411   -0.9667 C   0  0  0  0  0  0  0  0  0  0  0  0
   45.6242  -46.7307   -0.7732 C   0  0  0  0  0  0  0  0  0  0  0  0
   45.7288  -45.9236    0.7245 S   0  0  0  0  0  0  0  0  0  0  0  0
   44.6356  -44.4732    7.7861 C   0  0  0  0  0  0  0  0  0  0  0  0
   43.2421  -44.6506    8.7656 S   0  0  0  0  0  0  0  0  0  0  0  0
  1  2  1  0  0  0  0
  2  3  2  0  0  0  0
  3  4  1  0  0  0  0
  4  5  2  0  0  0  0
  5  6  1  0  0  0  0
  6  7  2  0  0  0  0
  7  8  1  0  0  0  0
  7  2  1  0  0  0  0
  8  9  2  0  0  0  0
  9 10  1  0  0  0  0
 10 11  1  0  0  0  0
 10 21  2  0  0  0  0
 11 12  1  0  0  0  0
 12 13  2  0  0  0  0
 12 14  1  0  0  0  0
 14 15  1  0  0  0  0
 15 16  1  0  0  0  0
 16 17  2  0  0  0  0
 17 18  1  0  0  0  0
 18 19  2  0  0  0  0
 19 20  1  0  0  0  0
 20 16  1  0  0  0  0
 21 22  1  0  0  0  0
 22  8  1  0  0  0  0
M  END
>  <CHROM.1>
-176.99360638,66.93605512,90.80762684,109.23409487,130.92405610,43.07303501
-45.81055749,5.20419223,-2.10847725,-0.51276972,-1.83896160

>  <Name>
design_14

>  <RI>
0

>  <Rbt.Current_Directory>
/home/ziqiaoxu/icml18-jtnn/VAEdesign

>  <Rbt.Executable>
rbdock ($Id: //depot/dev/client3/rdock/2013.1/src/exe/rbdock.cxx#4 $)

>  <Rbt.Library>
libRbt.so (2013.1, Build901 2013/11/27)

>  <Rbt.Parameter_File>
/export/apps/rDock/src/rDock_2013.1_src//data/scripts/dock.prm

>  <Rbt.Receptor>
/home/ziqiaoxu/icml18-jtnn/VAEdesign/targets/RdRp-SARS-CoV-2/pocket_docking.prm

>  <SCORE>
-20.3339

>  <SCORE.INTER>
-18.8713

>  <SCORE.INTER.CONST>
1

>  <SCORE.INTER.POLAR>
-0.796699

>  <SCORE.INTER.REPUL>
0

>  <SCORE.INTER.ROT>
5

>  <SCORE.INTER.VDW>
-26.5625

>  <SCORE.INTER.norm>
-0.857784

>  <SCORE.INTRA>
-1.46267

>  <SCORE.INTRA.DIHEDRAL>
-2.92229

>  <SCORE.INTRA.DIHEDRAL.0>
6.0158

>  <SCORE.INTRA.POLAR>
0

>  <SCORE.INTRA.POLAR.0>
0

>  <SCORE.INTRA.REPUL>
0

>  <SCORE.INTRA.REPUL.0>
0

>  <SCORE.INTRA.VDW>
-0.00152539

>  <SCORE.INTRA.VDW.0>
-0.449082

>  <SCORE.INTRA.norm>
-0.0664851

>  <SCORE.RESTR>
0

>  <SCORE.RESTR.CAVITY>
0

>  <SCORE.RESTR.norm>
0

>  <SCORE.SYSTEM>
0

>  <SCORE.SYSTEM.CONST>
0

>  <SCORE.SYSTEM.DIHEDRAL>
0

>  <SCORE.SYSTEM.norm>
0

>  <SCORE.heavy>
22

>  <SCORE.norm>
-0.92427

$$$$
design_0
 OpenBabel05252019093D

 24 26  0  0  0  0  0  0  0  0999 V2000
   40.8464  -47.8341    4.7427 N   0  0  0  0  0  0  0  0  0  0  0  0
   39.9414  -47.8658    6.1926 S   0  0  0  0  0  0  0  0  0  0  0  0
   39.8186  -49.2341    6.7873 O   0  0  0  0  0  0  0  0  0  0  0  0
   38.5476  -47.3460    5.9060 O   0  0  0  0  0  0  0  0  0  0  0  0
   40.6783  -46.7815    7.3592 C   0  0  0  0  0  0  0  0  0  0  0  0
   39.9596  -46.3983    8.4885 C   0  0  0  0  0  0  0  0  0  0  0  0
   40.5357  -45.5506    9.3993 C   0  0  0  0  0  0  0  0  0  0  0  0
   41.8329  -45.0688    9.2066 C   0  0  0  0  0  0  0  0  0  0  0  0
   42.5401  -45.4471    8.0925 C   0  0  0  0  0  0  0  0  0  0  0  0
   43.9094  -44.9342    7.8931 C   0  0  0  0  0  0  0  0  0  0  0  0
   44.5539  -45.4631    6.7204 N   0  0  0  0  0  0  0  0  0  0  0  0
   44.4913  -44.7488    5.5129 C   0  0  0  0  0  0  0  0  0  0  0  0
   43.8766  -43.6448    5.4425 O   0  0  0  0  0  0  0  0  0  0  0  0
   45.1704  -45.3295    4.3153 C   0  0  0  0  0  0  0  0  0  0  0  0
   44.2354  -45.4853    3.1863 C   0  0  0  0  0  0  0  0  0  0  0  0
   42.8803  -45.2700    3.2657 C   0  0  0  0  0  0  0  0  0  0  0  0
   42.3991  -45.5152    2.0349 N   0  0  0  0  0  0  0  0  0  0  0  0
   43.4111  -45.8750    1.1976 C   0  0  0  0  0  0  0  0  0  0  0  0
   43.4591  -46.2221   -0.1322 C   0  0  0  0  0  0  0  0  0  0  0  0
   44.6707  -46.5495   -0.7284 C   0  0  0  0  0  0  0  0  0  0  0  0
   45.8626  -46.5427   -0.0315 C   0  0  0  0  0  0  0  0  0  0  0  0
   45.8037  -46.1936    1.3003 C   0  0  0  0  0  0  0  0  0  0  0  0
   44.6029  -45.8634    1.9146 C   0  0  0  0  0  0  0  0  0  0  0  0
   41.9552  -46.2954    7.1875 C   0  0  0  0  0  0  0  0  0  0  0  0
  1  2  1  0  0  0  0
  2  3  2  0  0  0  0
  2  4  2  0  0  0  0
  2  5  1  0  0  0  0
  5  6  2  0  0  0  0
  6  7  1  0  0  0  0
  7  8  2  0  0  0  0
  8  9  1  0  0  0  0
  9 10  1  0  0  0  0
  9 24  2  0  0  0  0
 10 11  1  0  0  0  0
 11 12  1  0  0  0  0
 12 13  2  0  0  0  0
 12 14  1  0  0  0  0
 14 15  1  0  0  0  0
 15 16  2  0  0  0  0
 16 17  1  0  0  0  0
 17 18  1  0  0  0  0
 18 19  2  0  0  0  0
 19 20  1  0  0  0  0
 20 21  2  0  0  0  0
 21 22  1  0  0  0  0
 22 23  2  0  0  0  0
 23 15  1  0  0  0  0
 23 18  1  0  0  0  0
 24  5  1  0  0  0  0
M  END
>  <CHROM.1>
53.90043581,164.99374517,177.13626954,93.96185428,124.11479544,-6.94159147
42.53139155,-46.18991976,4.91474643,2.21666409,0.56134596,1.29893532

>  <Name>
design_0

>  <RI>
0

>  <Rbt.Current_Directory>
/home/ziqiaoxu/icml18-jtnn/VAEdesign

>  <Rbt.Executable>
rbdock ($Id: //depot/dev/client3/rdock/2013.1/src/exe/rbdock.cxx#4 $)

>  <Rbt.Library>
libRbt.so (2013.1, Build901 2013/11/27)

>  <Rbt.Parameter_File>
/export/apps/rDock/src/rDock_2013.1_src//data/scripts/dock.prm

>  <Rbt.Receptor>
/home/ziqiaoxu/icml18-jtnn/VAEdesign/targets/RdRp-SARS-CoV-2/pocket_docking.prm

>  <SCORE>
-22.4175

>  <SCORE.INTER>
-21.6033

>  <SCORE.INTER.CONST>
1

>  <SCORE.INTER.POLAR>
-1.89572

>  <SCORE.INTER.REPUL>
0

>  <SCORE.INTER.ROT>
6

>  <SCORE.INTER.VDW>
-26.5579

>  <SCORE.INTER.norm>
-0.900138

>  <SCORE.INTRA>
-0.814189

>  <SCORE.INTRA.DIHEDRAL>
-2.16971

>  <SCORE.INTRA.DIHEDRAL.0>
6.78052

>  <SCORE.INTRA.POLAR>
0

>  <SCORE.INTRA.POLAR.0>
0

>  <SCORE.INTRA.REPUL>
0

>  <SCORE.INTRA.REPUL.0>
0

>  <SCORE.INTRA.VDW>
0.270664

>  <SCORE.INTRA.VDW.0>
-2.07889

>  <SCORE.INTRA.norm>
-0.0339246

>  <SCORE.RESTR>
0

>  <SCORE.RESTR.CAVITY>
0

>  <SCORE.RESTR.norm>
0

>  <SCORE.SYSTEM>
0

>  <SCORE.SYSTEM.CONST>
0

>  <SCORE.SYSTEM.DIHEDRAL>
0

>  <SCORE.SYSTEM.norm>
0

>  <SCORE.heavy>
24

>  <SCORE.norm>
-0.934063

$$$$
design_2
 OpenBabel05252019093D

 21 22  0  0  0  0  0  0  0  0999 V2000
   41.0417  -44.6699   10.8685 C   0  0  0  0  0  0  0  0  0  0  0  0
   40.6760  -45.5272    9.7161 C   0  0  0  0  0  0  0  0  0  0  0  0
   41.4813  -45.5888    8.6047 C   0  0  0  0  0  0  0  0  0  0  0  0
   41.1461  -46.3929    7.5143 C   0  0  0  0  0  0  0  0  0  0  0  0
   39.9965  -47.1349    7.5476 C   0  0  0  0  0  0  0  0  0  0  0  0
   39.5065  -48.1633    6.2308 S   0  0  0  0  0  0  0  0  0  0  0  0
   39.6114  -49.5863    6.7201 O   0  0  0  0  0  0  0  0  0  0  0  0
   40.5079  -47.9623    5.1201 O   0  0  0  0  0  0  0  0  0  0  0  0
   37.9108  -47.7705    5.7632 N   0  0  0  0  0  0  0  0  0  0  0  0
   37.3965  -46.4605    5.7969 C   0  0  0  0  0  0  0  0  0  0  0  0
   36.0774  -46.1656    5.4655 C   0  0  0  0  0  0  0  0  0  0  0  0
   35.5992  -44.8718    5.5076 C   0  0  0  0  0  0  0  0  0  0  0  0
   36.4050  -43.8068    5.8802 C   0  0  0  0  0  0  0  0  0  0  0  0
   35.7946  -42.1659    5.9324 S   0  0  0  0  0  0  0  0  0  0  0  0
   37.0402  -41.0637    6.5630 C   0  0  0  0  0  0  0  0  0  0  0  0
   35.4585  -41.7119    4.5245 O   0  0  0  0  0  0  0  0  0  0  0  0
   34.5214  -42.0721    6.7194 O   0  0  0  0  0  0  0  0  0  0  0  0
   37.7048  -44.0863    6.2081 C   0  0  0  0  0  0  0  0  0  0  0  0
   38.1815  -45.3786    6.1660 C   0  0  0  0  0  0  0  0  0  0  0  0
   39.1949  -47.0698    8.6608 C   0  0  0  0  0  0  0  0  0  0  0  0
   39.5175  -46.2737    9.7519 C   0  0  0  0  0  0  0  0  0  0  0  0
  1  2  1  0  0  0  0
  2  3  2  0  0  0  0
  3  4  1  0  0  0  0
  4  5  2  0  0  0  0
  5  6  1  0  0  0  0
  5 20  1  0  0  0  0
  6  7  2  0  0  0  0
  6  8  2  0  0  0  0
  6  9  1  0  0  0  0
  9 10  1  0  0  0  0
 10 11  2  0  0  0  0
 11 12  1  0  0  0  0
 12 13  2  0  0  0  0
 13 14  1  0  0  0  0
 13 18  1  0  0  0  0
 14 15  1  0  0  0  0
 14 16  2  0  0  0  0
 14 17  2  0  0  0  0
 18 19  2  0  0  0  0
 19 10  1  0  0  0  0
 20 21  2  0  0  0  0
 21  2  1  0  0  0  0
M  END
>  <CHROM.1>
112.12565440,34.67055175,-177.25986800,175.76356004,38.21530052,-45.37233021
6.78767738,-0.51386607,-0.74367231,0.53875793

>  <Name>
design_2

>  <RI>
0

>  <Rbt.Current_Directory>
/home/ziqiaoxu/icml18-jtnn/VAEdesign

>  <Rbt.Executable>
rbdock ($Id: //depot/dev/client3/rdock/2013.1/src/exe/rbdock.cxx#4 $)

>  <Rbt.Library>
libRbt.so (2013.1, Build901 2013/11/27)

>  <Rbt.Parameter_File>
/export/apps/rDock/src/rDock_2013.1_src//data/scripts/dock.prm

>  <Rbt.Receptor>
/home/ziqiaoxu/icml18-jtnn/VAEdesign/targets/RdRp-SARS-CoV-2/pocket_docking.prm

>  <SCORE>
-19.4636

>  <SCORE.INTER>
-17.1539

>  <SCORE.INTER.CONST>
1

>  <SCORE.INTER.POLAR>
0

>  <SCORE.INTER.REPUL>
0.000792765

>  <SCORE.INTER.ROT>
4

>  <SCORE.INTER.VDW>
-26.5578

>  <SCORE.INTER.norm>
-0.816851

>  <SCORE.INTRA>
-2.30977

>  <SCORE.INTRA.DIHEDRAL>
-6.39802

>  <SCORE.INTRA.DIHEDRAL.0>
10.0267

>  <SCORE.INTRA.POLAR>
0

>  <SCORE.INTRA.POLAR.0>
0

>  <SCORE.INTRA.REPUL>
0

>  <SCORE.INTRA.REPUL.0>
0

>  <SCORE.INTRA.VDW>
0.889244

>  <SCORE.INTRA.VDW.0>
-2.90054

>  <SCORE.INTRA.norm>
-0.109989

>  <SCORE.RESTR>
0

>  <SCORE.RESTR.CAVITY>
0

>  <SCORE.RESTR.norm>
0

>  <SCORE.SYSTEM>
0

>  <SCORE.SYSTEM.CONST>
0

>  <SCORE.SYSTEM.DIHEDRAL>
0

>  <SCORE.SYSTEM.norm>
0

>  <SCORE.heavy>
21

>  <SCORE.norm>
-0.92684

$$$$
design_16
 OpenBabel05252019093D

 27 29  0  0  0  0  0  0  0  0999 V2000
   45.1868  -39.9103   -1.0626 C   0  0  0  0  0  0  0  0  0  0  0  0
   44.0196  -40.1656   -0.1597 C   0  0  0  0  0  0  0  0  0  0  0  0
   43.2454  -39.0659    0.2212 C   0  0  0  0  0  0  0  0  0  0  0  0
   42.1619  -39.2576    1.0516 C   0  0  0  0  0  0  0  0  0  0  0  0
   41.3178  -38.1190    1.4774 C   0  0  0  0  0  0  0  0  0  0  0  0
   41.8604  -40.5284    1.4918 C   0  0  0  0  0  0  0  0  0  0  0  0
   42.6071  -41.6308    1.1316 C   0  0  0  0  0  0  0  0  0  0  0  0
   42.2914  -42.9698    1.5936 C   0  0  0  0  0  0  0  0  0  0  0  0
   43.2277  -43.7770    1.8027 O   0  0  0  0  0  0  0  0  0  0  0  0
   40.9665  -43.3791    1.8103 N   0  0  0  0  0  0  0  0  0  0  0  0
   40.5918  -44.6969    2.2738 C   0  0  0  0  0  0  0  0  0  0  0  0
   40.8331  -44.8990    3.7210 C   0  0  0  0  0  0  0  0  0  0  0  0
   40.8094  -43.9360    4.5260 O   0  0  0  0  0  0  0  0  0  0  0  0
   41.0984  -46.2411    4.1871 N   0  0  0  0  0  0  0  0  0  0  0  0
   41.3246  -46.3702    5.6039 C   0  0  0  0  0  0  0  0  0  0  0  0
   42.5765  -45.7926    6.1023 C   0  0  0  0  0  0  0  0  0  0  0  0
   43.6738  -45.4747    5.3350 C   0  0  0  0  0  0  0  0  0  0  0  0
   44.8347  -44.9284    5.8648 C   0  0  0  0  0  0  0  0  0  0  0  0
   44.8533  -44.7086    7.2231 C   0  0  0  0  0  0  0  0  0  0  0  0
   43.7587  -45.0234    8.0032 C   0  0  0  0  0  0  0  0  0  0  0  0
   42.6082  -45.5632    7.4875 C   0  0  0  0  0  0  0  0  0  0  0  0
   41.4948  -45.8767    8.3239 N   0  0  0  0  0  0  0  0  0  0  0  0
   41.2312  -45.3101    9.5260 C   0  0  0  0  0  0  0  0  0  0  0  0
   40.0790  -45.8451   10.0620 C   0  0  0  0  0  0  0  0  0  0  0  0
   39.6480  -46.7684    9.1294 C   0  0  0  0  0  0  0  0  0  0  0  0
   40.5382  -46.7329    8.1232 N   0  0  0  0  0  0  0  0  0  0  0  0
   43.7085  -41.4206    0.2849 C   0  0  0  0  0  0  0  0  0  0  0  0
  1  2  1  0  0  0  0
  2  3  2  0  0  0  0
  3  4  1  0  0  0  0
  4  5  1  0  0  0  0
  4  6  2  0  0  0  0
  6  7  1  0  0  0  0
  7  8  1  0  0  0  0
  7 27  2  0  0  0  0
  8  9  2  0  0  0  0
  8 10  1  0  0  0  0
 10 11  1  0  0  0  0
 11 12  1  0  0  0  0
 12 13  2  0  0  0  0
 12 14  1  0  0  0  0
 14 15  1  0  0  0  0
 15 16  1  0  0  0  0
 16 17  2  0  0  0  0
 17 18  1  0  0  0  0
 18 19  2  0  0  0  0
 19 20  1  0  0  0  0
 20 21  2  0  0  0  0
 21 22  1  0  0  0  0
 21 16  1  0  0  0  0
 22 23  1  0  0  0  0
 23 24  2  0  0  0  0
 24 25  1  0  0  0  0
 25 26  2  0  0  0  0
 26 22  1  0  0  0  0
 27  2  1  0  0  0  0
M  END
>  <CHROM.1>
-146.45811530,75.97604959,27.96126573,-69.47578231,-18.19219357,-156.24887234
42.21682594,-43.64881075,4.22925801,-1.41080567,0.17619457,2.18327109

>  <Name>
design_16

>  <RI>
0

>  <Rbt.Current_Directory>
/home/ziqiaoxu/icml18-jtnn/VAEdesign

>  <Rbt.Executable>
rbdock ($Id: //depot/dev/client3/rdock/2013.1/src/exe/rbdock.cxx#4 $)

>  <Rbt.Library>
libRbt.so (2013.1, Build901 2013/11/27)

>  <Rbt.Parameter_File>
/export/apps/rDock/src/rDock_2013.1_src//data/scripts/dock.prm

>  <Rbt.Receptor>
/home/ziqiaoxu/icml18-jtnn/VAEdesign/targets/RdRp-SARS-CoV-2/pocket_docking.prm

>  <SCORE>
-25.2825

>  <SCORE.INTER>
-23.1761

>  <SCORE.INTER.CONST>
1

>  <SCORE.INTER.POLAR>
-2.35891

>  <SCORE.INTER.REPUL>
0

>  <SCORE.INTER.ROT>
6

>  <SCORE.INTER.VDW>
-26.5558

>  <SCORE.INTER.norm>
-0.858374

>  <SCORE.INTRA>
-2.10637

>  <SCORE.INTRA.DIHEDRAL>
-5.33047

>  <SCORE.INTRA.DIHEDRAL.0>
15.7741

>  <SCORE.INTRA.POLAR>
0

>  <SCORE.INTRA.POLAR.0>
0

>  <SCORE.INTRA.REPUL>
0

>  <SCORE.INTRA.REPUL.0>
0

>  <SCORE.INTRA.VDW>
0.558867

>  <SCORE.INTRA.VDW.0>
-2.05646

>  <SCORE.INTRA.norm>
-0.0780137

>  <SCORE.RESTR>
0

>  <SCORE.RESTR.CAVITY>
0

>  <SCORE.RESTR.norm>
0

>  <SCORE.SYSTEM>
0

>  <SCORE.SYSTEM.CONST>
0

>  <SCORE.SYSTEM.DIHEDRAL>
0

>  <SCORE.SYSTEM.norm>
0

>  <SCORE.heavy>
27

>  <SCORE.norm>
-0.936388

$$$$
design_11
 OpenBabel05252019093D

 26 28  0  0  0  0  0  0  0  0999 V2000
   43.7239  -46.5698   -0.7658 N   0  0  0  0  0  0  0  0  0  0  0  0
   44.1768  -46.3041    0.5582 C   0  0  0  0  0  0  0  0  0  0  0  0
   43.3610  -45.9072    1.4163 O   0  0  0  0  0  0  0  0  0  0  0  0
   45.5938  -46.4902    0.9310 C   0  0  0  0  0  0  0  0  0  0  0  0
   46.4680  -46.9604   -0.0435 C   0  0  0  0  0  0  0  0  0  0  0  0
   47.7951  -47.1527    0.2720 C   0  0  0  0  0  0  0  0  0  0  0  0
   48.2486  -46.8784    1.5502 C   0  0  0  0  0  0  0  0  0  0  0  0
   47.3754  -46.4132    2.5067 C   0  0  0  0  0  0  0  0  0  0  0  0
   47.8258  -46.1054    3.9138 C   0  0  0  0  0  0  0  0  0  0  0  0
   46.7200  -45.6943    4.7184 N   0  0  0  0  0  0  0  0  0  0  0  0
   46.2460  -44.3668    4.8132 C   0  0  0  0  0  0  0  0  0  0  0  0
   46.8046  -43.4664    4.1654 O   0  0  0  0  0  0  0  0  0  0  0  0
   45.0912  -44.0469    5.6802 C   0  0  0  0  0  0  0  0  0  0  0  0
   45.2593  -44.7569    6.9885 C   0  0  0  0  0  0  0  0  0  0  0  0
   44.0069  -44.9660    7.7421 C   0  0  0  0  0  0  0  0  0  0  0  0
   43.7408  -44.4333    8.9757 C   0  0  0  0  0  0  0  0  0  0  0  0
   42.5028  -44.8704    9.3096 N   0  0  0  0  0  0  0  0  0  0  0  0
   41.9953  -45.6373    8.3575 N   0  0  0  0  0  0  0  0  0  0  0  0
   40.7216  -46.2942    8.3301 C   0  0  0  0  0  0  0  0  0  0  0  0
   39.8217  -46.0444    9.3424 C   0  0  0  0  0  0  0  0  0  0  0  0
   38.5773  -46.6480    9.3778 C   0  0  0  0  0  0  0  0  0  0  0  0
   38.2196  -47.5174    8.3875 C   0  0  0  0  0  0  0  0  0  0  0  0
   39.0968  -47.7867    7.3631 C   0  0  0  0  0  0  0  0  0  0  0  0
   40.3475  -47.1692    7.3429 C   0  0  0  0  0  0  0  0  0  0  0  0
   42.9178  -45.6980    7.3916 C   0  0  0  0  0  0  0  0  0  0  0  0
   46.0592  -46.2278    2.1758 C   0  0  0  0  0  0  0  0  0  0  0  0
  1  2  1  0  0  0  0
  2  3  2  0  0  0  0
  2  4  1  0  0  0  0
  4  5  2  0  0  0  0
  5  6  1  0  0  0  0
  6  7  2  0  0  0  0
  7  8  1  0  0  0  0
  8  9  1  0  0  0  0
  8 26  2  0  0  0  0
  9 10  1  0  0  0  0
 10 11  1  0  0  0  0
 11 12  2  0  0  0  0
 11 13  1  0  0  0  0
 13 14  1  0  0  0  0
 14 15  1  0  0  0  0
 15 16  1  0  0  0  0
 16 17  2  0  0  0  0
 17 18  1  0  0  0  0
 18 19  1  0  0  0  0
 18 25  1  0  0  0  0
 19 20  2  0  0  0  0
 20 21  1  0  0  0  0
 21 22  2  0  0  0  0
 22 23  1  0  0  0  0
 23 24  2  0  0  0  0
 24 19  1  0  0  0  0
 25 15  2  0  0  0  0
 26  4  1  0  0  0  0
M  END
>  <CHROM.1>
-1.33550695,-177.54355323,-86.54210654,44.12576584,-157.77791063,-117.29774302
6.13833095,43.97660841,-45.91410824,4.98057967,0.83364277,-0.33759301,-1.86579857

>  <Name>
design_11

>  <RI>
0

>  <Rbt.Current_Directory>
/home/ziqiaoxu/icml18-jtnn/VAEdesign

>  <Rbt.Executable>
rbdock ($Id: //depot/dev/client3/rdock/2013.1/src/exe/rbdock.cxx#4 $)

>  <Rbt.Library>
libRbt.so (2013.1, Build901 2013/11/27)

>  <Rbt.Parameter_File>
/export/apps/rDock/src/rDock_2013.1_src//data/scripts/dock.prm

>  <Rbt.Receptor>
/home/ziqiaoxu/icml18-jtnn/VAEdesign/targets/RdRp-SARS-CoV-2/pocket_docking.prm

>  <SCORE>
-23.1877

>  <SCORE.INTER>
-19.761

>  <SCORE.INTER.CONST>
1

>  <SCORE.INTER.POLAR>
-1.64861

>  <SCORE.INTER.REPUL>
0

>  <SCORE.INTER.ROT>
7

>  <SCORE.INTER.VDW>
-26.5557

>  <SCORE.INTER.norm>
-0.760038

>  <SCORE.INTRA>
-3.42674

>  <SCORE.INTRA.DIHEDRAL>
-6.3388

>  <SCORE.INTRA.DIHEDRAL.0>
12.6804

>  <SCORE.INTRA.POLAR>
0

>  <SCORE.INTRA.POLAR.0>
0

>  <SCORE.INTRA.REPUL>
0

>  <SCORE.INTRA.REPUL.0>
0

>  <SCORE.INTRA.VDW>
-0.257344

>  <SCORE.INTRA.VDW.0>
-0.292499

>  <SCORE.INTRA.norm>
-0.131798

>  <SCORE.RESTR>
0

>  <SCORE.RESTR.CAVITY>
0

>  <SCORE.RESTR.norm>
0

>  <SCORE.SYSTEM>
0

>  <SCORE.SYSTEM.CONST>
0

>  <SCORE.SYSTEM.DIHEDRAL>
0

>  <SCORE.SYSTEM.norm>
0

>  <SCORE.heavy>
26

>  <SCORE.norm>
-0.891836

$$$$
design_1
 OpenBabel05252019093D

 23 25  0  0  0  0  0  0  0  0999 V2000
   38.6978  -46.3530    9.1589 C   0  0  0  0  0  0  0  0  0  0  0  0
   39.7104  -46.9144    8.2879 N   0  0  0  0  0  0  0  0  0  0  0  0
   39.3751  -48.0724    7.4634 C   0  0  0  0  0  0  0  0  0  0  0  0
   39.3070  -47.6716    5.9968 C   0  0  0  0  0  0  0  0  0  0  0  0
   38.3255  -46.5710    5.8260 C   0  0  0  0  0  0  0  0  0  0  0  0
   36.9792  -46.8320    5.6052 C   0  0  0  0  0  0  0  0  0  0  0  0
   36.0442  -45.8302    5.4429 C   0  0  0  0  0  0  0  0  0  0  0  0
   36.4311  -44.5107    5.4970 C   0  0  0  0  0  0  0  0  0  0  0  0
   37.7577  -44.2374    5.7144 C   0  0  0  0  0  0  0  0  0  0  0  0
   38.7032  -45.2380    5.8785 C   0  0  0  0  0  0  0  0  0  0  0  0
   40.9896  -46.3215    8.2658 C   0  0  0  0  0  0  0  0  0  0  0  0
   41.8530  -46.8282    7.4996 O   0  0  0  0  0  0  0  0  0  0  0  0
   41.2978  -45.1578    9.1060 C   0  0  0  0  0  0  0  0  0  0  0  0
   42.7659  -44.7867    8.9530 C   0  0  0  0  0  0  0  0  0  0  0  0
   43.4671  -44.2842   10.0240 C   0  0  0  0  0  0  0  0  0  0  0  0
   45.0150  -44.0434    9.3317 S   0  0  0  0  0  0  0  0  0  0  0  0
   44.6791  -44.5863    7.7552 C   0  0  0  0  0  0  0  0  0  0  0  0
   45.5890  -44.6652    6.5720 C   0  0  0  0  0  0  0  0  0  0  0  0
   45.2620  -45.2950    5.4424 C   0  0  0  0  0  0  0  0  0  0  0  0
   46.1831  -45.2958    4.4315 C   0  0  0  0  0  0  0  0  0  0  0  0
   47.4825  -44.4122    5.0958 S   0  0  0  0  0  0  0  0  0  0  0  0
   46.8242  -44.0689    6.6281 C   0  0  0  0  0  0  0  0  0  0  0  0
   43.4015  -44.9247    7.8348 N   0  0  0  0  0  0  0  0  0  0  0  0
  1  2  1  0  0  0  0
  2  3  1  0  0  0  0
  2 11  1  0  0  0  0
  3  4  1  0  0  0  0
  4  5  1  0  0  0  0
  5  6  2  0  0  0  0
  6  7  1  0  0  0  0
  7  8  2  0  0  0  0
  8  9  1  0  0  0  0
  9 10  2  0  0  0  0
 10  5  1  0  0  0  0
 11 12  2  0  0  0  0
 11 13  1  0  0  0  0
 13 14  1  0  0  0  0
 14 15  2  0  0  0  0
 15 16  1  0  0  0  0
 16 17  1  0  0  0  0
 17 18  1  0  0  0  0
 17 23  2  0  0  0  0
 18 19  1  0  0  0  0
 19 20  2  0  0  0  0
 20 21  1  0  0  0  0
 21 22  1  0  0  0  0
 22 18  2  0  0  0  0
 23 14  1  0  0  0  0
M  END
>  <CHROM.1>
109.82304949,-56.56384313,-88.05146197,176.21105989,-145.74145213,169.64930443
42.04975720,-45.40740762,7.07539392,3.10666243,-0.19829914,-1.61954476

>  <Name>
design_1

>  <RI>
0

>  <Rbt.Current_Directory>
/home/ziqiaoxu/icml18-jtnn/VAEdesign

>  <Rbt.Executable>
rbdock ($Id: //depot/dev/client3/rdock/2013.1/src/exe/rbdock.cxx#4 $)

>  <Rbt.Library>
libRbt.so (2013.1, Build901 2013/11/27)

>  <Rbt.Parameter_File>
/export/apps/rDock/src/rDock_2013.1_src//data/scripts/dock.prm

>  <Rbt.Receptor>
/home/ziqiaoxu/icml18-jtnn/VAEdesign/targets/RdRp-SARS-CoV-2/pocket_docking.prm

>  <SCORE>
-15.1406

>  <SCORE.INTER>
-15.1557

>  <SCORE.INTER.CONST>
1

>  <SCORE.INTER.POLAR>
0

>  <SCORE.INTER.REPUL>
0

>  <SCORE.INTER.ROT>
6

>  <SCORE.INTER.VDW>
-26.5557

>  <SCORE.INTER.norm>
-0.658945

>  <SCORE.INTRA>
0.0151694

>  <SCORE.INTRA.DIHEDRAL>
0.124937

>  <SCORE.INTRA.DIHEDRAL.0>
4.6033

>  <SCORE.INTRA.POLAR>
0

>  <SCORE.INTRA.POLAR.0>
0

>  <SCORE.INTRA.REPUL>
0

>  <SCORE.INTRA.REPUL.0>
0

>  <SCORE.INTRA.VDW>
-0.0472992

>  <SCORE.INTRA.VDW.0>
-1.63415

>  <SCORE.INTRA.norm>
0.000659537

>  <SCORE.RESTR>
0

>  <SCORE.RESTR.CAVITY>
0

>  <SCORE.RESTR.norm>
0

>  <SCORE.SYSTEM>
0

>  <SCORE.SYSTEM.CONST>
0

>  <SCORE.SYSTEM.DIHEDRAL>
0

>  <SCORE.SYSTEM.norm>
0

>  <SCORE.heavy>
23

>  <SCORE.norm>
-0.658286

$$$$
design_7
 OpenBabel05252019093D

 26 28  0  0  0  0  0  0  0  0999 V2000
   43.8027  -45.4130   -0.4881 N   0  0  0  0  0  0  0  0  0  0  0  0
   43.6890  -45.0832    0.8827 C   0  0  0  0  0  0  0  0  0  0  0  0
   42.7779  -44.3428    1.2725 O   0  0  0  0  0  0  0  0  0  0  0  0
   44.6650  -45.6302    1.8382 C   0  0  0  0  0  0  0  0  0  0  0  0
   45.7267  -46.3733    1.3885 C   0  0  0  0  0  0  0  0  0  0  0  0
   46.6358  -46.8849    2.2829 C   0  0  0  0  0  0  0  0  0  0  0  0
   46.4733  -46.6493    3.6260 C   0  0  0  0  0  0  0  0  0  0  0  0
   45.4052  -45.8968    4.1406 C   0  0  0  0  0  0  0  0  0  0  0  0
   45.3625  -45.7173    5.5131 N   0  0  0  0  0  0  0  0  0  0  0  0
   44.5135  -44.8664    6.2846 C   0  0  0  0  0  0  0  0  0  0  0  0
   43.6654  -44.1872    5.6811 O   0  0  0  0  0  0  0  0  0  0  0  0
   44.6354  -44.8021    7.7077 N   0  0  0  0  0  0  0  0  0  0  0  0
   43.7805  -43.9890    8.4759 C   0  0  0  0  0  0  0  0  0  0  0  0
   42.5695  -44.5714    9.0320 C   0  0  0  0  0  0  0  0  0  0  0  0
   42.1376  -44.2902   10.2907 C   0  0  0  0  0  0  0  0  0  0  0  0
   40.9589  -44.8694   10.8136 C   0  0  0  0  0  0  0  0  0  0  0  0
   40.2279  -45.7393   10.0477 C   0  0  0  0  0  0  0  0  0  0  0  0
   40.6410  -46.0509    8.7582 C   0  0  0  0  0  0  0  0  0  0  0  0
   39.8819  -46.9837    7.9584 N   0  0  0  0  0  0  0  0  0  0  0  0
   38.6570  -47.6670    8.2118 C   0  0  0  0  0  0  0  0  0  0  0  0
   38.7533  -48.9512    7.4255 C   0  0  0  0  0  0  0  0  0  0  0  0
   39.7413  -48.6955    6.3033 C   0  0  0  0  0  0  0  0  0  0  0  0
   40.3259  -47.3771    6.6615 C   0  0  0  0  0  0  0  0  0  0  0  0
   41.0981  -46.6960    5.9406 O   0  0  0  0  0  0  0  0  0  0  0  0
   41.7815  -45.4683    8.2888 C   0  0  0  0  0  0  0  0  0  0  0  0
   44.5273  -45.4068    3.2087 C   0  0  0  0  0  0  0  0  0  0  0  0
  1  2  1  0  0  0  0
  2  3  2  0  0  0  0
  2  4  1  0  0  0  0
  4  5  2  0  0  0  0
  5  6  1  0  0  0  0
  6  7  2  0  0  0  0
  7  8  1  0  0  0  0
  8  9  1  0  0  0  0
  8 26  2  0  0  0  0
  9 10  1  0  0  0  0
 10 11  2  0  0  0  0
 10 12  1  0  0  0  0
 12 13  1  0  0  0  0
 13 14  1  0  0  0  0
 14 15  2  0  0  0  0
 15 16  1  0  0  0  0
 16 17  2  0  0  0  0
 17 18  1  0  0  0  0
 18 19  1  0  0  0  0
 18 25  2  0  0  0  0
 19 20  1  0  0  0  0
 20 21  1  0  0  0  0
 21 22  1  0  0  0  0
 22 23  1  0  0  0  0
 23 24  2  0  0  0  0
 23 19  1  0  0  0  0
 25 14  1  0  0  0  0
 26  4  1  0  0  0  0
M  END
>  <CHROM.1>
4.59443614,170.77749341,93.18890460,139.05720110,3.58771881,42.77315333,-45.86668128
5.78015073,0.94132387,-0.49180800,-1.82176550

>  <Name>
design_7

>  <RI>
0

>  <Rbt.Current_Directory>
/home/ziqiaoxu/icml18-jtnn/VAEdesign

>  <Rbt.Executable>
rbdock ($Id: //depot/dev/client3/rdock/2013.1/src/exe/rbdock.cxx#4 $)

>  <Rbt.Library>
libRbt.so (2013.1, Build901 2013/11/27)

>  <Rbt.Parameter_File>
/export/apps/rDock/src/rDock_2013.1_src//data/scripts/dock.prm

>  <Rbt.Receptor>
/home/ziqiaoxu/icml18-jtnn/VAEdesign/targets/RdRp-SARS-CoV-2/pocket_docking.prm

>  <SCORE>
-29.3782

>  <SCORE.INTER>
-25.0359

>  <SCORE.INTER.CONST>
1

>  <SCORE.INTER.POLAR>
-2.61243

>  <SCORE.INTER.REPUL>
0

>  <SCORE.INTER.ROT>
5

>  <SCORE.INTER.VDW>
-26.5537

>  <SCORE.INTER.norm>
-0.96292

>  <SCORE.INTRA>
-4.34228

>  <SCORE.INTRA.DIHEDRAL>
-10.9575

>  <SCORE.INTRA.DIHEDRAL.0>
13.2805

>  <SCORE.INTRA.POLAR>
0

>  <SCORE.INTRA.POLAR.0>
0

>  <SCORE.INTRA.REPUL>
0

>  <SCORE.INTRA.REPUL.0>
0

>  <SCORE.INTRA.VDW>
1.13647

>  <SCORE.INTRA.VDW.0>
-2.16834

>  <SCORE.INTRA.norm>
-0.167011

>  <SCORE.RESTR>
0

>  <SCORE.RESTR.CAVITY>
0

>  <SCORE.RESTR.norm>
0

>  <SCORE.SYSTEM>
0

>  <SCORE.SYSTEM.CONST>
0

>  <SCORE.SYSTEM.DIHEDRAL>
0

>  <SCORE.SYSTEM.norm>
0

>  <SCORE.heavy>
26

>  <SCORE.norm>
-1.12993

$$$$
design_0
 OpenBabel05252019093D

 22 23  0  0  0  0  0  0  0  0999 V2000
   39.3736  -48.6621    6.4580 C   0  0  0  0  0  0  0  0  0  0  0  0
   39.8095  -47.6464    7.4316 C   0  0  0  0  0  0  0  0  0  0  0  0
   40.9706  -46.9344    7.3055 C   0  0  0  0  0  0  0  0  0  0  0  0
   41.4047  -45.9720    8.2133 C   0  0  0  0  0  0  0  0  0  0  0  0
   40.5880  -45.7304    9.3169 C   0  0  0  0  0  0  0  0  0  0  0  0
   41.0739  -44.5748   10.5812 S   0  0  0  0  0  0  0  0  0  0  0  0
   40.0464  -43.1429   10.6522 C   0  0  0  0  0  0  0  0  0  0  0  0
   40.0502  -42.1573    9.5831 C   0  0  0  0  0  0  0  0  0  0  0  0
   40.4519  -42.6466    8.4510 O   0  0  0  0  0  0  0  0  0  0  0  0
   39.6915  -40.7974    9.5705 N   0  0  0  0  0  0  0  0  0  0  0  0
   39.8210  -40.1441    8.2683 C   0  0  0  0  0  0  0  0  0  0  0  0
   40.5589  -39.0062    8.1326 C   0  0  0  0  0  0  0  0  0  0  0  0
   40.6104  -38.3424    6.9326 C   0  0  0  0  0  0  0  0  0  0  0  0
   39.9051  -38.8271    5.8197 C   0  0  0  0  0  0  0  0  0  0  0  0
   39.8594  -38.0733    4.6858 N   0  0  0  0  0  0  0  0  0  0  0  0
   39.8142  -37.3309    3.5690 C   0  0  0  0  0  0  0  0  0  0  0  0
   39.8536  -35.8977    3.5191 N   0  0  0  0  0  0  0  0  0  0  0  0
   39.7304  -37.8197    2.3474 O   0  0  0  0  0  0  0  0  0  0  0  0
   39.1739  -39.9928    6.0071 C   0  0  0  0  0  0  0  0  0  0  0  0
   39.1253  -40.6540    7.2199 C   0  0  0  0  0  0  0  0  0  0  0  0
   39.4279  -46.4286    9.4633 C   0  0  0  0  0  0  0  0  0  0  0  0
   39.0216  -47.3749    8.5516 C   0  0  0  0  0  0  0  0  0  0  0  0
  1  2  1  0  0  0  0
  2  3  2  0  0  0  0
  3  4  1  0  0  0  0
  4  5  2  0  0  0  0
  5  6  1  0  0  0  0
  5 21  1  0  0  0  0
  6  7  1  0  0  0  0
  7  8  1  0  0  0  0
  8  9  2  0  0  0  0
  8 10  1  0  0  0  0
 10 11  1  0  0  0  0
 11 12  2  0  0  0  0
 12 13  1  0  0  0  0
 13 14  2  0  0  0  0
 14 15  1  0  0  0  0
 14 19  1  0  0  0  0
 15 16  1  0  0  0  0
 16 17  1  0  0  0  0
 16 18  2  0  0  0  0
 19 20  2  0  0  0  0
 20 11  1  0  0  0  0
 21 22  2  0  0  0  0
 22  2  1  0  0  0  0
M  END
>  <CHROM.1>
113.17664572,-68.52314209,23.53103290,-125.80327652,-161.43065214,40.07254081
-42.24870805,7.48985567,1.28411497,1.44268889,2.98198245

>  <Name>
design_0

>  <RI>
0

>  <Rbt.Current_Directory>
/home/ziqiaoxu/icml18-jtnn/VAEdesign

>  <Rbt.Executable>
rbdock ($Id: //depot/dev/client3/rdock/2013.1/src/exe/rbdock.cxx#4 $)

>  <Rbt.Library>
libRbt.so (2013.1, Build901 2013/11/27)

>  <Rbt.Parameter_File>
/export/apps/rDock/src/rDock_2013.1_src//data/scripts/dock.prm

>  <Rbt.Receptor>
/home/ziqiaoxu/icml18-jtnn/VAEdesign/targets/RdRp-SARS-CoV-2/pocket_docking.prm

>  <SCORE>
-23.7054

>  <SCORE.INTER>
-23.1995

>  <SCORE.INTER.CONST>
1

>  <SCORE.INTER.POLAR>
-2.07259

>  <SCORE.INTER.REPUL>
0

>  <SCORE.INTER.ROT>
5

>  <SCORE.INTER.VDW>
-26.5528

>  <SCORE.INTER.norm>
-1.05452

>  <SCORE.INTRA>
-0.508211

>  <SCORE.INTRA.DIHEDRAL>
-4.46595

>  <SCORE.INTRA.DIHEDRAL.0>
19.5345

>  <SCORE.INTRA.POLAR>
0

>  <SCORE.INTRA.POLAR.0>
0

>  <SCORE.INTRA.REPUL>
0

>  <SCORE.INTRA.REPUL.0>
0

>  <SCORE.INTRA.VDW>
1.72476

>  <SCORE.INTRA.VDW.0>
-2.00471

>  <SCORE.INTRA.norm>
-0.0231005

>  <SCORE.RESTR>
0.00232608

>  <SCORE.RESTR.CAVITY>
0.00232608

>  <SCORE.RESTR.norm>
0.000105731

>  <SCORE.SYSTEM>
0

>  <SCORE.SYSTEM.CONST>
0

>  <SCORE.SYSTEM.DIHEDRAL>
0

>  <SCORE.SYSTEM.norm>
0

>  <SCORE.heavy>
22

>  <SCORE.norm>
-1.07752

$$$$
design_13
 OpenBabel05252019093D

 25 27  0  0  0  0  0  0  0  0999 V2000
   38.2614  -46.0732    2.6207 N   0  0  0  0  0  0  0  0  0  0  0  0
   38.5609  -45.7481    3.9735 C   0  0  0  0  0  0  0  0  0  0  0  0
   37.6782  -45.5865    4.8349 O   0  0  0  0  0  0  0  0  0  0  0  0
   39.9904  -45.6056    4.3369 C   0  0  0  0  0  0  0  0  0  0  0  0
   40.4767  -47.0553    5.3084 S   0  0  0  0  0  0  0  0  0  0  0  0
   39.7804  -46.8473    6.9578 C   0  0  0  0  0  0  0  0  0  0  0  0
   38.4894  -47.2317    7.1756 C   0  0  0  0  0  0  0  0  0  0  0  0
   37.9325  -47.1054    8.4394 C   0  0  0  0  0  0  0  0  0  0  0  0
   38.6948  -46.5896    9.4608 C   0  0  0  0  0  0  0  0  0  0  0  0
   40.0191  -46.1930    9.2434 C   0  0  0  0  0  0  0  0  0  0  0  0
   40.5554  -46.3248    7.9887 C   0  0  0  0  0  0  0  0  0  0  0  0
   41.8877  -45.9042    7.6528 N   0  0  0  0  0  0  0  0  0  0  0  0
   42.7471  -45.1192    8.4317 C   0  0  0  0  0  0  0  0  0  0  0  0
   42.4827  -44.7013    9.5495 O   0  0  0  0  0  0  0  0  0  0  0  0
   44.0690  -44.7640    7.8881 C   0  0  0  0  0  0  0  0  0  0  0  0
   44.4123  -45.3872    6.6860 C   0  0  0  0  0  0  0  0  0  0  0  0
   45.6209  -45.0375    6.1273 C   0  0  0  0  0  0  0  0  0  0  0  0
   46.0466  -45.6087    4.9249 C   0  0  0  0  0  0  0  0  0  0  0  0
   47.2346  -45.2557    4.3928 C   0  0  0  0  0  0  0  0  0  0  0  0
   48.0443  -44.3203    5.0339 C   0  0  0  0  0  0  0  0  0  0  0  0
   47.6290  -43.7537    6.2182 C   0  0  0  0  0  0  0  0  0  0  0  0
   46.4007  -44.1082    6.7847 C   0  0  0  0  0  0  0  0  0  0  0  0
   46.0385  -43.5434    7.9190 O   0  0  0  0  0  0  0  0  0  0  0  0
   44.8695  -43.8555    8.4966 C   0  0  0  0  0  0  0  0  0  0  0  0
   44.5499  -43.3080    9.5780 O   0  0  0  0  0  0  0  0  0  0  0  0
  1  2  1  0  0  0  0
  2  3  2  0  0  0  0
  2  4  1  0  0  0  0
  4  5  1  0  0  0  0
  5  6  1  0  0  0  0
  6  7  2  0  0  0  0
  7  8  1  0  0  0  0
  8  9  2  0  0  0  0
  9 10  1  0  0  0  0
 10 11  2  0  0  0  0
 11 12  1  0  0  0  0
 11  6  1  0  0  0  0
 12 13  1  0  0  0  0
 13 14  2  0  0  0  0
 13 15  1  0  0  0  0
 15 16  2  0  0  0  0
 16 17  1  0  0  0  0
 17 18  2  0  0  0  0
 18 19  1  0  0  0  0
 19 20  2  0  0  0  0
 20 21  1  0  0  0  0
 21 22  2  0  0  0  0
 22 23  1  0  0  0  0
 22 17  1  0  0  0  0
 23 24  1  0  0  0  0
 24 25  2  0  0  0  0
 24 15  1  0  0  0  0
M  END
>  <CHROM.1>
-106.50376324,-75.34813032,84.24586208,166.32266016,-7.40089927,42.34292281
-45.46727373,6.71043530,-3.03316637,0.26765003,1.46260746

>  <Name>
design_13

>  <RI>
0

>  <Rbt.Current_Directory>
/home/ziqiaoxu/icml18-jtnn/VAEdesign

>  <Rbt.Executable>
rbdock ($Id: //depot/dev/client3/rdock/2013.1/src/exe/rbdock.cxx#4 $)

>  <Rbt.Library>
libRbt.so (2013.1, Build901 2013/11/27)

>  <Rbt.Parameter_File>
/export/apps/rDock/src/rDock_2013.1_src//data/scripts/dock.prm

>  <Rbt.Receptor>
/home/ziqiaoxu/icml18-jtnn/VAEdesign/targets/RdRp-SARS-CoV-2/pocket_docking.prm

>  <SCORE>
-23.4783

>  <SCORE.INTER>
-23.2683

>  <SCORE.INTER.CONST>
1

>  <SCORE.INTER.POLAR>
-2.09499

>  <SCORE.INTER.REPUL>
0.0010236

>  <SCORE.INTER.ROT>
5

>  <SCORE.INTER.VDW>
-26.5504

>  <SCORE.INTER.norm>
-0.93073

>  <SCORE.INTRA>
-0.222299

>  <SCORE.INTRA.DIHEDRAL>
-3.95716

>  <SCORE.INTRA.DIHEDRAL.0>
8.6868

>  <SCORE.INTRA.POLAR>
0

>  <SCORE.INTRA.POLAR.0>
0

>  <SCORE.INTRA.REPUL>
0

>  <SCORE.INTRA.REPUL.0>
0

>  <SCORE.INTRA.VDW>
1.75628

>  <SCORE.INTRA.VDW.0>
-1.47664

>  <SCORE.INTRA.norm>
-0.00889195

>  <SCORE.RESTR>
0.0122272

>  <SCORE.RESTR.CAVITY>
0.0122272

>  <SCORE.RESTR.norm>
0.000489089

>  <SCORE.SYSTEM>
0

>  <SCORE.SYSTEM.CONST>
0

>  <SCORE.SYSTEM.DIHEDRAL>
0

>  <SCORE.SYSTEM.norm>
0

>  <SCORE.heavy>
25

>  <SCORE.norm>
-0.939133

$$$$
design_0
 OpenBabel05252019093D

 23 25  0  0  0  0  0  0  0  0999 V2000
   44.5681  -46.8253   -0.5922 C   0  0  0  0  0  0  0  0  0  0  0  0
   43.4425  -46.0865    0.0729 C   0  0  0  0  0  0  0  0  0  0  0  0
   43.5138  -44.6576   -0.1418 N   0  0  0  0  0  0  0  0  0  0  0  0
   42.9925  -43.7961    0.8334 C   0  0  0  0  0  0  0  0  0  0  0  0
   42.4689  -44.2538    1.8826 O   0  0  0  0  0  0  0  0  0  0  0  0
   43.0427  -42.3533    0.6594 C   0  0  0  0  0  0  0  0  0  0  0  0
   44.0871  -41.6963    0.0508 C   0  0  0  0  0  0  0  0  0  0  0  0
   44.0969  -40.3220   -0.0953 C   0  0  0  0  0  0  0  0  0  0  0  0
   43.0249  -39.5987    0.3860 C   0  0  0  0  0  0  0  0  0  0  0  0
   41.9542  -40.1969    1.0022 C   0  0  0  0  0  0  0  0  0  0  0  0
   40.8806  -39.4615    1.4831 N   0  0  0  0  0  0  0  0  0  0  0  0
   40.9032  -38.0428    1.6946 C   0  0  0  0  0  0  0  0  0  0  0  0
   40.5925  -37.6991    3.1425 C   0  0  0  0  0  0  0  0  0  0  0  0
   40.1584  -36.4320    3.4547 C   0  0  0  0  0  0  0  0  0  0  0  0
   39.9494  -36.5424    5.1476 S   0  0  0  0  0  0  0  0  0  0  0  0
   40.4265  -38.1887    5.3500 C   0  0  0  0  0  0  0  0  0  0  0  0
   40.4846  -38.9615    6.6013 C   0  0  0  0  0  0  0  0  0  0  0  0
   40.6590  -40.2977    6.7536 C   0  0  0  0  0  0  0  0  0  0  0  0
   40.6775  -40.7781    8.0118 C   0  0  0  0  0  0  0  0  0  0  0  0
   40.5186  -39.8755    9.0299 C   0  0  0  0  0  0  0  0  0  0  0  0
   40.3499  -38.3949    8.1938 S   0  0  0  0  0  0  0  0  0  0  0  0
   40.7117  -38.5428    4.1200 N   0  0  0  0  0  0  0  0  0  0  0  0
   41.9852  -41.5596    1.1259 C   0  0  0  0  0  0  0  0  0  0  0  0
  1  2  1  0  0  0  0
  2  3  1  0  0  0  0
  3  4  1  0  0  0  0
  4  5  2  0  0  0  0
  4  6  1  0  0  0  0
  6  7  2  0  0  0  0
  7  8  1  0  0  0  0
  8  9  2  0  0  0  0
  9 10  1  0  0  0  0
 10 11  1  0  0  0  0
 10 23  2  0  0  0  0
 11 12  1  0  0  0  0
 12 13  1  0  0  0  0
 13 14  2  0  0  0  0
 14 15  1  0  0  0  0
 15 16  1  0  0  0  0
 16 17  1  0  0  0  0
 16 22  2  0  0  0  0
 17 18  2  0  0  0  0
 18 19  1  0  0  0  0
 19 20  2  0  0  0  0
 20 21  1  0  0  0  0
 21 17  1  0  0  0  0
 22 13  1  0  0  0  0
 23  6  1  0  0  0  0
M  END
>  <CHROM.1>
-150.54720116,-35.68383821,-15.97137823,-121.69357995,-159.74021233,169.01526398
41.64855254,-40.37713477,3.30772452,-0.11278406,-1.21395681,2.28077102

>  <Name>
design_0

>  <RI>
0

>  <Rbt.Current_Directory>
/home/ziqiaoxu/icml18-jtnn/VAEdesign

>  <Rbt.Executable>
rbdock ($Id: //depot/dev/client3/rdock/2013.1/src/exe/rbdock.cxx#4 $)

>  <Rbt.Library>
libRbt.so (2013.1, Build901 2013/11/27)

>  <Rbt.Parameter_File>
/export/apps/rDock/src/rDock_2013.1_src//data/scripts/dock.prm

>  <Rbt.Receptor>
/home/ziqiaoxu/icml18-jtnn/VAEdesign/targets/RdRp-SARS-CoV-2/pocket_docking.prm

>  <SCORE>
-19.6858

>  <SCORE.INTER>
-21.7915

>  <SCORE.INTER.CONST>
1

>  <SCORE.INTER.POLAR>
-1.95389

>  <SCORE.INTER.REPUL>
0

>  <SCORE.INTER.ROT>
6

>  <SCORE.INTER.VDW>
-26.5482

>  <SCORE.INTER.norm>
-0.947455

>  <SCORE.INTRA>
2.10567

>  <SCORE.INTRA.DIHEDRAL>
5.98802

>  <SCORE.INTRA.DIHEDRAL.0>
5.23031

>  <SCORE.INTRA.POLAR>
0

>  <SCORE.INTRA.POLAR.0>
0

>  <SCORE.INTRA.REPUL>
0

>  <SCORE.INTRA.REPUL.0>
0

>  <SCORE.INTRA.VDW>
-0.888337

>  <SCORE.INTRA.VDW.0>
-0.46889

>  <SCORE.INTRA.norm>
0.0915509

>  <SCORE.RESTR>
0

>  <SCORE.RESTR.CAVITY>
0

>  <SCORE.RESTR.norm>
0

>  <SCORE.SYSTEM>
0

>  <SCORE.SYSTEM.CONST>
0

>  <SCORE.SYSTEM.DIHEDRAL>
0

>  <SCORE.SYSTEM.norm>
0

>  <SCORE.heavy>
23

>  <SCORE.norm>
-0.855904

$$$$
design_2
 OpenBabel05252019093D

 24 27  0  0  0  0  0  0  0  0999 V2000
   40.6693  -45.1546    9.9581 C   0  0  0  0  0  0  0  0  0  0  0  0
   40.2034  -46.1808    8.9807 C   0  0  0  0  0  0  0  0  0  0  0  0
   38.9616  -46.7645    9.1860 C   0  0  0  0  0  0  0  0  0  0  0  0
   38.5025  -47.7165    8.2999 C   0  0  0  0  0  0  0  0  0  0  0  0
   39.2665  -48.0995    7.2038 C   0  0  0  0  0  0  0  0  0  0  0  0
   40.4864  -47.5013    7.0345 C   0  0  0  0  0  0  0  0  0  0  0  0
   40.9842  -46.5326    7.9122 C   0  0  0  0  0  0  0  0  0  0  0  0
   42.2925  -45.9506    7.6530 C   0  0  0  0  0  0  0  0  0  0  0  0
   42.9608  -45.0944    8.4426 N   0  0  0  0  0  0  0  0  0  0  0  0
   44.1062  -44.8052    7.8522 O   0  0  0  0  0  0  0  0  0  0  0  0
   44.2142  -45.4270    6.7257 C   0  0  0  0  0  0  0  0  0  0  0  0
   45.3464  -45.3659    5.7713 C   0  0  0  0  0  0  0  0  0  0  0  0
   45.0443  -44.2787    4.7766 C   0  0  0  0  0  0  0  0  0  0  0  0
   44.5763  -44.8334    3.4974 N   0  0  0  0  0  0  0  0  0  0  0  0
   43.2451  -44.8788    3.3455 C   0  0  0  0  0  0  0  0  0  0  0  0
   42.7534  -45.3825    2.1802 N   0  0  0  0  0  0  0  0  0  0  0  0
   43.6233  -45.8190    1.2166 C   0  0  0  0  0  0  0  0  0  0  0  0
   43.4065  -46.4960   -0.3339 S   0  0  0  0  0  0  0  0  0  0  0  0
   45.0399  -46.7125   -0.7681 C   0  0  0  0  0  0  0  0  0  0  0  0
   45.7193  -46.2446    0.3225 C   0  0  0  0  0  0  0  0  0  0  0  0
   44.9780  -45.7804    1.3539 C   0  0  0  0  0  0  0  0  0  0  0  0
   45.4471  -45.2534    2.5716 C   0  0  0  0  0  0  0  0  0  0  0  0
   46.6784  -45.1717    2.8023 O   0  0  0  0  0  0  0  0  0  0  0  0
   43.0773  -46.1475    6.5966 N   0  0  0  0  0  0  0  0  0  0  0  0
  1  2  1  0  0  0  0
  2  3  2  0  0  0  0
  3  4  1  0  0  0  0
  4  5  2  0  0  0  0
  5  6  1  0  0  0  0
  6  7  2  0  0  0  0
  7  8  1  0  0  0  0
  7  2  1  0  0  0  0
  8  9  2  0  0  0  0
  9 10  1  0  0  0  0
 10 11  1  0  0  0  0
 11 12  1  0  0  0  0
 11 24  2  0  0  0  0
 12 13  1  0  0  0  0
 13 14  1  0  0  0  0
 14 15  1  0  0  0  0
 15 16  2  0  0  0  0
 16 17  1  0  0  0  0
 17 18  1  0  0  0  0
 18 19  1  0  0  0  0
 19 20  2  0  0  0  0
 20 21  1  0  0  0  0
 21 22  1  0  0  0  0
 21 17  2  0  0  0  0
 22 23  2  0  0  0  0
 22 14  1  0  0  0  0
 24  8  1  0  0  0  0
M  END
>  <CHROM.1>
5.60699571,-92.18924382,-102.41424705,96.36279995,43.04995185,-45.90109314
4.83398878,-2.11935015,-0.44288973,-1.76127762

>  <Name>
design_2

>  <RI>
0

>  <Rbt.Current_Directory>
/home/ziqiaoxu/icml18-jtnn/VAEdesign

>  <Rbt.Executable>
rbdock ($Id: //depot/dev/client3/rdock/2013.1/src/exe/rbdock.cxx#4 $)

>  <Rbt.Library>
libRbt.so (2013.1, Build901 2013/11/27)

>  <Rbt.Parameter_File>
/export/apps/rDock/src/rDock_2013.1_src//data/scripts/dock.prm

>  <Rbt.Receptor>
/home/ziqiaoxu/icml18-jtnn/VAEdesign/targets/RdRp-SARS-CoV-2/pocket_docking.prm

>  <SCORE>
-15.1407

>  <SCORE.INTER>
-17.1476

>  <SCORE.INTER.CONST>
1

>  <SCORE.INTER.POLAR>
0

>  <SCORE.INTER.REPUL>
0

>  <SCORE.INTER.ROT>
4

>  <SCORE.INTER.VDW>
-26.5476

>  <SCORE.INTER.norm>
-0.714484

>  <SCORE.INTRA>
2.00695

>  <SCORE.INTRA.DIHEDRAL>
4.54807

>  <SCORE.INTRA.DIHEDRAL.0>
3.75049

>  <SCORE.INTRA.POLAR>
0

>  <SCORE.INTRA.POLAR.0>
0

>  <SCORE.INTRA.REPUL>
0

>  <SCORE.INTRA.REPUL.0>
0

>  <SCORE.INTRA.VDW>
-0.267087

>  <SCORE.INTRA.VDW.0>
-0.231938

>  <SCORE.INTRA.norm>
0.0836228

>  <SCORE.RESTR>
0

>  <SCORE.RESTR.CAVITY>
0

>  <SCORE.RESTR.norm>
0

>  <SCORE.SYSTEM>
0

>  <SCORE.SYSTEM.CONST>
0

>  <SCORE.SYSTEM.DIHEDRAL>
0

>  <SCORE.SYSTEM.norm>
0

>  <SCORE.heavy>
24

>  <SCORE.norm>
-0.630861

$$$$
design_3
 OpenBabel05252019093D

 25 28  0  0  0  0  0  0  0  0999 V2000
   38.7860  -49.0873    6.7384 C   0  0  0  0  0  0  0  0  0  0  0  0
   39.4505  -47.9570    7.4536 C   0  0  0  0  0  0  0  0  0  0  0  0
   39.2685  -47.6552    8.7505 N   0  0  0  0  0  0  0  0  0  0  0  0
   40.0083  -46.5780    9.1046 C   0  0  0  0  0  0  0  0  0  0  0  0
   40.1871  -45.8729   10.2762 C   0  0  0  0  0  0  0  0  0  0  0  0
   41.0242  -44.7831   10.3617 C   0  0  0  0  0  0  0  0  0  0  0  0
   41.6927  -44.4103    9.2152 C   0  0  0  0  0  0  0  0  0  0  0  0
   41.5278  -45.1010    8.0360 C   0  0  0  0  0  0  0  0  0  0  0  0
   40.6820  -46.2025    7.9489 C   0  0  0  0  0  0  0  0  0  0  0  0
   40.3188  -47.0577    6.9782 N   0  0  0  0  0  0  0  0  0  0  0  0
   40.7958  -47.0077    5.6323 C   0  0  0  0  0  0  0  0  0  0  0  0
   39.8734  -46.3064    4.6887 C   0  0  0  0  0  0  0  0  0  0  0  0
   40.1884  -44.8557    4.6819 C   0  0  0  0  0  0  0  0  0  0  0  0
   39.5152  -44.0578    5.3724 O   0  0  0  0  0  0  0  0  0  0  0  0
   41.2528  -44.3503    3.8964 N   0  0  0  0  0  0  0  0  0  0  0  0
   41.5241  -42.9276    3.9207 C   0  0  0  0  0  0  0  0  0  0  0  0
   42.6178  -42.6059    2.9497 C   0  0  0  0  0  0  0  0  0  0  0  0
   42.2266  -43.2051    1.6080 C   0  0  0  0  0  0  0  0  0  0  0  0
   42.1432  -44.7083    1.6798 C   0  0  1  0  0  0  0  0  0  0  0  0
   43.3764  -45.2435    0.9911 C   0  0  0  0  0  0  0  0  0  0  0  0
   44.6460  -45.0292    1.3032 N   0  0  0  0  0  0  0  0  0  0  0  0
   45.5834  -45.5710    0.5996 C   0  0  0  0  0  0  0  0  0  0  0  0
   45.2137  -46.3606   -0.4615 C   0  0  0  0  0  0  0  0  0  0  0  0
   43.5037  -46.2653   -0.3694 S   0  0  0  0  0  0  0  0  0  0  0  0
   42.0675  -45.2356    3.0748 C   0  0  0  0  0  0  0  0  0  0  0  0
  1  2  1  0  0  0  0
  2  3  2  0  0  0  0
  3  4  1  0  0  0  0
  4  5  2  0  0  0  0
  5  6  1  0  0  0  0
  6  7  2  0  0  0  0
  7  8  1  0  0  0  0
  8  9  2  0  0  0  0
  9 10  1  0  0  0  0
  9  4  1  0  0  0  0
 10 11  1  0  0  0  0
 10  2  1  0  0  0  0
 11 12  1  0  0  0  0
 12 13  1  0  0  0  0
 13 14  2  0  0  0  0
 13 15  1  0  0  0  0
 15 16  1  0  0  0  0
 16 17  1  0  0  0  0
 17 18  1  0  0  0  0
 18 19  1  0  0  0  0
 19 20  1  1  0  0  0
 19 25  1  0  0  0  0
 20 21  2  0  0  0  0
 21 22  1  0  0  0  0
 22 23  2  0  0  0  0
 23 24  1  0  0  0  0
 24 20  1  0  0  0  0
 25 15  1  0  0  0  0
M  END
>  <CHROM.1>
82.80593714,88.36416627,-98.15099773,59.70668689,41.58420956,-45.56382326
4.66844669,2.71621619,1.10000132,0.61116458

>  <Name>
design_3

>  <RI>
0

>  <Rbt.Current_Directory>
/home/ziqiaoxu/icml18-jtnn/VAEdesign

>  <Rbt.Executable>
rbdock ($Id: //depot/dev/client3/rdock/2013.1/src/exe/rbdock.cxx#4 $)

>  <Rbt.Library>
libRbt.so (2013.1, Build901 2013/11/27)

>  <Rbt.Parameter_File>
/export/apps/rDock/src/rDock_2013.1_src//data/scripts/dock.prm

>  <Rbt.Receptor>
/home/ziqiaoxu/icml18-jtnn/VAEdesign/targets/RdRp-SARS-CoV-2/pocket_docking.prm

>  <SCORE>
-17.8867

>  <SCORE.INTER>
-17.1456

>  <SCORE.INTER.CONST>
1

>  <SCORE.INTER.POLAR>
0

>  <SCORE.INTER.REPUL>
0

>  <SCORE.INTER.ROT>
4

>  <SCORE.INTER.VDW>
-26.5456

>  <SCORE.INTER.norm>
-0.685822

>  <SCORE.INTRA>
-0.741175

>  <SCORE.INTRA.DIHEDRAL>
3.00791

>  <SCORE.INTRA.DIHEDRAL.0>
4.54812

>  <SCORE.INTRA.POLAR>
0

>  <SCORE.INTRA.POLAR.0>
0

>  <SCORE.INTRA.REPUL>
0

>  <SCORE.INTRA.REPUL.0>
0

>  <SCORE.INTRA.VDW>
-2.24513

>  <SCORE.INTRA.VDW.0>
-0.358479

>  <SCORE.INTRA.norm>
-0.029647

>  <SCORE.RESTR>
0

>  <SCORE.RESTR.CAVITY>
0

>  <SCORE.RESTR.norm>
0

>  <SCORE.SYSTEM>
0

>  <SCORE.SYSTEM.CONST>
0

>  <SCORE.SYSTEM.DIHEDRAL>
0

>  <SCORE.SYSTEM.norm>
0

>  <SCORE.heavy>
25

>  <SCORE.norm>
-0.715469

$$$$
design_7
 OpenBabel05252019093D

 23 25  0  0  0  0  0  0  0  0999 V2000
   33.4611  -40.7390    6.7040 C   0  0  0  0  0  0  0  0  0  0  0  0
   34.8980  -41.1126    6.5995 C   0  0  0  0  0  0  0  0  0  0  0  0
   35.8899  -40.1936    6.8699 C   0  0  0  0  0  0  0  0  0  0  0  0
   37.2181  -40.5375    6.7736 C   0  0  0  0  0  0  0  0  0  0  0  0
   37.5746  -41.8376    6.3962 C   0  0  0  0  0  0  0  0  0  0  0  0
   36.6055  -42.7802    6.1191 C   0  0  0  0  0  0  0  0  0  0  0  0
   36.9895  -44.0941    5.7354 N   0  0  0  0  0  0  0  0  0  0  0  0
   38.4001  -44.3890    5.5788 C   0  0  0  0  0  0  0  0  0  0  0  0
   38.5364  -45.5532    4.6059 C   0  0  0  0  0  0  0  0  0  0  0  0
   37.8836  -46.7383    5.0680 N   0  0  0  0  0  0  0  0  0  0  0  0
   38.9457  -47.7905    5.9283 S   0  0  0  0  0  0  0  0  0  0  0  0
   40.1548  -48.1047    5.0950 O   0  0  0  0  0  0  0  0  0  0  0  0
   38.2726  -49.1087    6.2431 O   0  0  0  0  0  0  0  0  0  0  0  0
   39.4862  -47.0241    7.4049 C   0  0  0  0  0  0  0  0  0  0  0  0
   38.7792  -47.1236    8.5649 C   0  0  0  0  0  0  0  0  0  0  0  0
   39.2466  -46.4976    9.7157 C   0  0  0  0  0  0  0  0  0  0  0  0
   40.4153  -45.7665    9.7373 C   0  0  0  0  0  0  0  0  0  0  0  0
   41.1284  -45.6677    8.5619 C   0  0  0  0  0  0  0  0  0  0  0  0
   42.4031  -44.8975    8.4919 C   0  0  0  0  0  0  0  0  0  0  0  0
   40.6677  -46.2860    7.4234 C   0  0  0  0  0  0  0  0  0  0  0  0
   36.6596  -46.5012    5.7635 C   0  0  0  0  0  0  0  0  0  0  0  0
   36.0500  -45.1435    5.4976 C   0  0  0  0  0  0  0  0  0  0  0  0
   35.3062  -42.3864    6.2299 C   0  0  0  0  0  0  0  0  0  0  0  0
  1  2  1  0  0  0  0
  2  3  2  0  0  0  0
  3  4  1  0  0  0  0
  4  5  2  0  0  0  0
  5  6  1  0  0  0  0
  6  7  1  0  0  0  0
  6 23  2  0  0  0  0
  7  8  1  0  0  0  0
  8  9  1  0  0  0  0
  9 10  1  0  0  0  0
 10 11  1  0  0  0  0
 10 21  1  0  0  0  0
 11 12  2  0  0  0  0
 11 13  2  0  0  0  0
 11 14  1  0  0  0  0
 14 15  2  0  0  0  0
 15 16  1  0  0  0  0
 16 17  2  0  0  0  0
 17 18  1  0  0  0  0
 18 19  1  0  0  0  0
 18 20  2  0  0  0  0
 20 14  1  0  0  0  0
 21 22  1  0  0  0  0
 22  7  1  0  0  0  0
 23  2  1  0  0  0  0
M  END
>  <CHROM.1>
-3.13549955,-54.11647405,87.74995872,38.10295883,-45.03076702,6.65775720
2.37603822,-0.62551535,0.44134251

>  <Name>
design_7

>  <RI>
0

>  <Rbt.Current_Directory>
/home/ziqiaoxu/icml18-jtnn/VAEdesign

>  <Rbt.Executable>
rbdock ($Id: //depot/dev/client3/rdock/2013.1/src/exe/rbdock.cxx#4 $)

>  <Rbt.Library>
libRbt.so (2013.1, Build901 2013/11/27)

>  <Rbt.Parameter_File>
/export/apps/rDock/src/rDock_2013.1_src//data/scripts/dock.prm

>  <Rbt.Receptor>
/home/ziqiaoxu/icml18-jtnn/VAEdesign/targets/RdRp-SARS-CoV-2/pocket_docking.prm

>  <SCORE>
-17.4833

>  <SCORE.INTER>
-17.0018

>  <SCORE.INTER.CONST>
1

>  <SCORE.INTER.POLAR>
0

>  <SCORE.INTER.REPUL>
0.228555

>  <SCORE.INTER.ROT>
3

>  <SCORE.INTER.VDW>
-26.5446

>  <SCORE.INTER.norm>
-0.739208

>  <SCORE.INTRA>
-0.481524

>  <SCORE.INTRA.DIHEDRAL>
-0.0476193

>  <SCORE.INTRA.DIHEDRAL.0>
1.34156

>  <SCORE.INTRA.POLAR>
0

>  <SCORE.INTRA.POLAR.0>
0

>  <SCORE.INTRA.REPUL>
0

>  <SCORE.INTRA.REPUL.0>
0

>  <SCORE.INTRA.VDW>
-0.457714

>  <SCORE.INTRA.VDW.0>
0.129958

>  <SCORE.INTRA.norm>
-0.0209358

>  <SCORE.RESTR>
0

>  <SCORE.RESTR.CAVITY>
0

>  <SCORE.RESTR.norm>
0

>  <SCORE.SYSTEM>
0

>  <SCORE.SYSTEM.CONST>
0

>  <SCORE.SYSTEM.DIHEDRAL>
0

>  <SCORE.SYSTEM.norm>
0

>  <SCORE.heavy>
23

>  <SCORE.norm>
-0.760144

$$$$
design_10
 OpenBabel05252019093D

 25 28  0  0  0  0  0  0  0  0999 V2000
   40.1672  -47.5478    6.1294 C   0  0  0  0  0  0  0  0  0  0  0  0
   40.1821  -46.8915    7.4565 C   0  0  0  0  0  0  0  0  0  0  0  0
   39.0583  -47.1041    8.2755 C   0  0  0  0  0  0  0  0  0  0  0  0
   38.9951  -46.5292    9.5236 C   0  0  0  0  0  0  0  0  0  0  0  0
   40.0251  -45.7393    9.9914 C   0  0  0  0  0  0  0  0  0  0  0  0
   41.1124  -45.5469    9.1716 C   0  0  0  0  0  0  0  0  0  0  0  0
   41.2013  -46.1179    7.9029 C   0  0  0  0  0  0  0  0  0  0  0  0
   42.3823  -45.8716    7.0875 C   0  0  0  0  0  0  0  0  0  0  0  0
   42.4280  -45.8941    5.7618 N   0  0  0  0  0  0  0  0  0  0  0  0
   43.5441  -45.6606    5.0193 C   0  0  0  0  0  0  0  0  0  0  0  0
   44.7332  -45.3769    5.6169 C   0  0  0  0  0  0  0  0  0  0  0  0
   45.9932  -45.0952    4.9854 C   0  0  0  0  0  0  0  0  0  0  0  0
   46.7469  -44.1542    5.4982 O   0  0  0  0  0  0  0  0  0  0  0  0
   46.5434  -45.7196    3.8477 N   0  0  0  0  0  0  0  0  0  0  0  0
   47.8087  -45.4966    3.1715 C   0  0  0  0  0  0  0  0  0  0  0  0
   47.6733  -46.8336    2.5269 C   0  0  0  0  0  0  0  0  0  0  0  0
   46.2345  -46.7108    2.8914 C   0  0  2  0  0  0  0  0  0  0  0  0
   45.3162  -46.3874    1.7737 C   0  0  0  0  0  0  0  0  0  0  0  0
   44.0524  -45.9197    2.1126 C   0  0  0  0  0  0  0  0  0  0  0  0
   43.1478  -45.5905    1.1512 C   0  0  0  0  0  0  0  0  0  0  0  0
   43.4648  -45.7135   -0.1418 N   0  0  0  0  0  0  0  0  0  0  0  0
   44.6617  -46.1567   -0.5297 C   0  0  0  0  0  0  0  0  0  0  0  0
   45.5945  -46.4960    0.4467 C   0  0  0  0  0  0  0  0  0  0  0  0
   44.6974  -45.3503    7.0204 C   0  0  0  0  0  0  0  0  0  0  0  0
   43.5730  -45.5875    7.6988 N   0  0  0  0  0  0  0  0  0  0  0  0
  1  2  1  0  0  0  0
  2  3  2  0  0  0  0
  3  4  1  0  0  0  0
  4  5  2  0  0  0  0
  5  6  1  0  0  0  0
  6  7  2  0  0  0  0
  7  8  1  0  0  0  0
  7  2  1  0  0  0  0
  8  9  2  0  0  0  0
  9 10  1  0  0  0  0
 10 11  2  0  0  0  0
 11 12  1  0  0  0  0
 11 24  1  0  0  0  0
 12 13  2  0  0  0  0
 12 14  1  0  0  0  0
 14 15  1  0  0  0  0
 15 16  1  0  0  0  0
 16 17  1  0  0  0  0
 17 18  1  6  0  0  0
 17 14  1  0  0  0  0
 18 19  2  0  0  0  0
 19 20  1  0  0  0  0
 20 21  2  0  0  0  0
 21 22  1  0  0  0  0
 22 23  2  0  0  0  0
 23 18  1  0  0  0  0
 24 25  2  0  0  0  0
 25  8  1  0  0  0  0
M  END
>  <CHROM.1>
26.69155187,140.14660998,-56.67679352,43.61686293,-45.97131541,4.95101386
2.26394983,0.21867858,1.44167605

>  <Name>
design_10

>  <RI>
0

>  <Rbt.Current_Directory>
/home/ziqiaoxu/icml18-jtnn/VAEdesign

>  <Rbt.Executable>
rbdock ($Id: //depot/dev/client3/rdock/2013.1/src/exe/rbdock.cxx#4 $)

>  <Rbt.Library>
libRbt.so (2013.1, Build901 2013/11/27)

>  <Rbt.Parameter_File>
/export/apps/rDock/src/rDock_2013.1_src//data/scripts/dock.prm

>  <Rbt.Receptor>
/home/ziqiaoxu/icml18-jtnn/VAEdesign/targets/RdRp-SARS-CoV-2/pocket_docking.prm

>  <SCORE>
-15.2948

>  <SCORE.INTER>
-17.9559

>  <SCORE.INTER.CONST>
1

>  <SCORE.INTER.POLAR>
0

>  <SCORE.INTER.REPUL>
0.0374296

>  <SCORE.INTER.ROT>
3

>  <SCORE.INTER.VDW>
-26.543

>  <SCORE.INTER.norm>
-0.718235

>  <SCORE.INTRA>
2.66103

>  <SCORE.INTRA.DIHEDRAL>
6.13044

>  <SCORE.INTRA.DIHEDRAL.0>
0.744596

>  <SCORE.INTRA.POLAR>
0

>  <SCORE.INTRA.POLAR.0>
0

>  <SCORE.INTRA.REPUL>
0

>  <SCORE.INTRA.REPUL.0>
0

>  <SCORE.INTRA.VDW>
-0.40419

>  <SCORE.INTRA.VDW.0>
-0.0708343

>  <SCORE.INTRA.norm>
0.106441

>  <SCORE.RESTR>
0

>  <SCORE.RESTR.CAVITY>
0

>  <SCORE.RESTR.norm>
0

>  <SCORE.SYSTEM>
0

>  <SCORE.SYSTEM.CONST>
0

>  <SCORE.SYSTEM.DIHEDRAL>
0

>  <SCORE.SYSTEM.norm>
0

>  <SCORE.heavy>
25

>  <SCORE.norm>
-0.611793

$$$$
design_11
 OpenBabel05252019093D

 24 25  0  0  0  0  0  0  0  0999 V2000
   46.8399  -46.1770   11.2878 N   0  0  0  0  0  0  0  0  0  0  0  0
   45.8328  -45.3620   11.8366 C   0  0  0  0  0  0  0  0  0  0  0  0
   45.2889  -45.6974   12.9113 O   0  0  0  0  0  0  0  0  0  0  0  0
   45.4328  -44.1290   11.1389 C   0  0  0  0  0  0  0  0  0  0  0  0
   44.0644  -44.1299   10.5611 C   0  0  0  0  0  0  0  0  0  0  0  0
   44.0754  -44.0716    9.0492 C   0  0  0  0  0  0  0  0  0  0  0  0
   43.1705  -43.3893    8.5543 O   0  0  0  0  0  0  0  0  0  0  0  0
   45.0825  -44.7767    8.3608 N   0  0  0  0  0  0  0  0  0  0  0  0
   45.2744  -44.8615    6.9712 C   0  0  0  0  0  0  0  0  0  0  0  0
   46.4381  -44.4351    6.3817 C   0  0  0  0  0  0  0  0  0  0  0  0
   46.6318  -44.4534    4.9943 C   0  0  0  0  0  0  0  0  0  0  0  0
   45.6501  -44.9054    4.1596 C   0  0  0  0  0  0  0  0  0  0  0  0
   44.4737  -45.3388    4.7339 C   0  0  0  0  0  0  0  0  0  0  0  0
   44.2628  -45.3293    6.1035 C   0  0  0  0  0  0  0  0  0  0  0  0
   43.0814  -45.8305    6.6871 N   0  0  0  0  0  0  0  0  0  0  0  0
   42.0028  -46.4767    6.0487 C   0  0  0  0  0  0  0  0  0  0  0  0
   41.9287  -46.7106    4.8226 O   0  0  0  0  0  0  0  0  0  0  0  0
   40.8489  -46.9334    6.8353 C   0  0  0  0  0  0  0  0  0  0  0  0
   39.9334  -47.7648    6.2463 C   0  0  0  0  0  0  0  0  0  0  0  0
   38.8368  -48.1934    6.9779 C   0  0  0  0  0  0  0  0  0  0  0  0
   38.6800  -47.7801    8.2851 C   0  0  0  0  0  0  0  0  0  0  0  0
   39.6039  -46.9446    8.8703 C   0  0  0  0  0  0  0  0  0  0  0  0
   39.4670  -46.5294   10.1491 F   0  0  0  0  0  0  0  0  0  0  0  0
   40.7117  -46.5123    8.1289 C   0  0  0  0  0  0  0  0  0  0  0  0
  1  2  1  0  0  0  0
  2  3  2  0  0  0  0
  2  4  1  0  0  0  0
  4  5  1  0  0  0  0
  5  6  1  0  0  0  0
  6  7  2  0  0  0  0
  6  8  1  0  0  0  0
  8  9  1  0  0  0  0
  9 10  2  0  0  0  0
 10 11  1  0  0  0  0
 11 12  2  0  0  0  0
 12 13  1  0  0  0  0
 13 14  2  0  0  0  0
 14 15  1  0  0  0  0
 14  9  1  0  0  0  0
 15 16  1  0  0  0  0
 16 17  2  0  0  0  0
 16 18  1  0  0  0  0
 18 19  2  0  0  0  0
 19 20  1  0  0  0  0
 20 21  2  0  0  0  0
 21 22  1  0  0  0  0
 22 23  1  0  0  0  0
 22 24  2  0  0  0  0
 24 18  1  0  0  0  0
M  END
>  <CHROM.1>
111.93878299,-113.95464923,-142.93030362,120.39226460,-172.63362270,-168.28905119
43.23044138,-45.69358372,8.03084960,0.36502767,0.38090599,1.55662233

>  <Name>
design_11

>  <RI>
0

>  <Rbt.Current_Directory>
/home/ziqiaoxu/icml18-jtnn/VAEdesign

>  <Rbt.Executable>
rbdock ($Id: //depot/dev/client3/rdock/2013.1/src/exe/rbdock.cxx#4 $)

>  <Rbt.Library>
libRbt.so (2013.1, Build901 2013/11/27)

>  <Rbt.Parameter_File>
/export/apps/rDock/src/rDock_2013.1_src//data/scripts/dock.prm

>  <Rbt.Receptor>
/home/ziqiaoxu/icml18-jtnn/VAEdesign/targets/RdRp-SARS-CoV-2/pocket_docking.prm

>  <SCORE>
-20.0198

>  <SCORE.INTER>
-23.425

>  <SCORE.INTER.CONST>
1

>  <SCORE.INTER.POLAR>
-2.47399

>  <SCORE.INTER.REPUL>
0.0255031

>  <SCORE.INTER.ROT>
6

>  <SCORE.INTER.VDW>
-26.5409

>  <SCORE.INTER.norm>
-0.976041

>  <SCORE.INTRA>
3.40521

>  <SCORE.INTRA.DIHEDRAL>
13.6319

>  <SCORE.INTRA.DIHEDRAL.0>
5.7726

>  <SCORE.INTRA.POLAR>
0

>  <SCORE.INTRA.POLAR.0>
0

>  <SCORE.INTRA.REPUL>
0.000885577

>  <SCORE.INTRA.REPUL.0>
0

>  <SCORE.INTRA.VDW>
-3.41519

>  <SCORE.INTRA.VDW.0>
2.58983

>  <SCORE.INTRA.norm>
0.141884

>  <SCORE.RESTR>
0

>  <SCORE.RESTR.CAVITY>
0

>  <SCORE.RESTR.norm>
0

>  <SCORE.SYSTEM>
0

>  <SCORE.SYSTEM.CONST>
0

>  <SCORE.SYSTEM.DIHEDRAL>
0

>  <SCORE.SYSTEM.norm>
0

>  <SCORE.heavy>
24

>  <SCORE.norm>
-0.834157

$$$$
design_16
 OpenBabel05252019093D

 26 29  0  0  0  0  0  0  0  0999 V2000
   47.1986  -46.7174    3.5471 C   0  0  0  0  0  0  0  0  0  0  0  0
   46.0563  -46.4262    2.6365 C   0  0  0  0  0  0  0  0  0  0  0  0
   46.0415  -46.7369    1.3409 N   0  0  0  0  0  0  0  0  0  0  0  0
   44.8968  -46.3566    0.7914 N   0  0  0  0  0  0  0  0  0  0  0  0
   44.5800  -46.5570   -0.6089 C   0  0  0  0  0  0  0  0  0  0  0  0
   44.1549  -45.7871    1.7538 C   0  0  0  0  0  0  0  0  0  0  0  0
   44.8656  -45.8139    2.9491 C   0  0  0  0  0  0  0  0  0  0  0  0
   44.4401  -45.2974    4.2746 C   0  0  0  0  0  0  0  0  0  0  0  0
   42.9899  -45.6206    4.4662 C   0  0  0  0  0  0  0  0  0  0  0  0
   42.5431  -45.2550    5.8731 C   0  0  0  0  0  0  0  0  0  0  0  0
   43.0506  -44.2351    6.3918 O   0  0  0  0  0  0  0  0  0  0  0  0
   41.5988  -46.0631    6.5148 N   0  0  0  0  0  0  0  0  0  0  0  0
   41.0675  -45.9057    7.8085 C   0  0  0  0  0  0  0  0  0  0  0  0
   41.7072  -45.0242    8.6852 C   0  0  0  0  0  0  0  0  0  0  0  0
   41.2473  -44.9638    9.9967 C   0  0  0  0  0  0  0  0  0  0  0  0
   40.2068  -45.7334   10.4285 C   0  0  0  0  0  0  0  0  0  0  0  0
   39.5772  -46.6011    9.5591 C   0  0  0  0  0  0  0  0  0  0  0  0
   39.9938  -46.6954    8.2576 C   0  0  0  0  0  0  0  0  0  0  0  0
   39.3448  -47.6235    7.3211 C   0  0  0  0  0  0  0  0  0  0  0  0
   39.7817  -48.8110    6.8956 N   0  0  0  0  0  0  0  0  0  0  0  0
   38.9040  -49.3429    6.1106 N   0  0  0  0  0  0  0  0  0  0  0  0
   37.8925  -48.5228    6.0118 N   0  0  0  0  0  0  0  0  0  0  0  0
   38.1384  -47.4342    6.7611 N   0  0  0  0  0  0  0  0  0  0  0  0
   37.1705  -46.3787    6.8551 C   0  0  0  0  0  0  0  0  0  0  0  0
   36.5105  -45.9390    5.5373 C   0  0  0  0  0  0  0  0  0  0  0  0
   37.3595  -45.0320    6.3203 C   0  0  0  0  0  0  0  0  0  0  0  0
  1  2  1  0  0  0  0
  2  3  2  0  0  0  0
  3  4  1  0  0  0  0
  4  5  1  0  0  0  0
  4  6  1  0  0  0  0
  6  7  2  0  0  0  0
  7  8  1  0  0  0  0
  7  2  1  0  0  0  0
  8  9  1  0  0  0  0
  9 10  1  0  0  0  0
 10 11  2  0  0  0  0
 10 12  1  0  0  0  0
 12 13  1  0  0  0  0
 13 14  2  0  0  0  0
 14 15  1  0  0  0  0
 15 16  2  0  0  0  0
 16 17  1  0  0  0  0
 17 18  2  0  0  0  0
 18 19  1  0  0  0  0
 18 13  1  0  0  0  0
 19 20  2  0  0  0  0
 20 21  1  0  0  0  0
 21 22  2  0  0  0  0
 22 23  1  0  0  0  0
 23 24  1  0  0  0  0
 23 19  1  0  0  0  0
 24 25  1  0  0  0  0
 25 26  1  0  0  0  0
 26 24  1  0  0  0  0
M  END
>  <CHROM.1>
-140.17949326,173.52578532,35.51990630,-14.00975191,76.90706479,137.11576739
41.61222918,-46.34441747,5.57071030,-0.67709420,0.29630470,1.29678183

>  <Name>
design_16

>  <RI>
0

>  <Rbt.Current_Directory>
/home/ziqiaoxu/icml18-jtnn/VAEdesign

>  <Rbt.Executable>
rbdock ($Id: //depot/dev/client3/rdock/2013.1/src/exe/rbdock.cxx#4 $)

>  <Rbt.Library>
libRbt.so (2013.1, Build901 2013/11/27)

>  <Rbt.Parameter_File>
/export/apps/rDock/src/rDock_2013.1_src//data/scripts/dock.prm

>  <Rbt.Receptor>
/home/ziqiaoxu/icml18-jtnn/VAEdesign/targets/RdRp-SARS-CoV-2/pocket_docking.prm

>  <SCORE>
-11.1909

>  <SCORE.INTER>
-15.1356

>  <SCORE.INTER.CONST>
1

>  <SCORE.INTER.POLAR>
0

>  <SCORE.INTER.REPUL>
0

>  <SCORE.INTER.ROT>
6

>  <SCORE.INTER.VDW>
-26.5356

>  <SCORE.INTER.norm>
-0.582138

>  <SCORE.INTRA>
3.94463

>  <SCORE.INTRA.DIHEDRAL>
8.51962

>  <SCORE.INTRA.DIHEDRAL.0>
10.207

>  <SCORE.INTRA.POLAR>
0.162568

>  <SCORE.INTRA.POLAR.0>
-0.162568

>  <SCORE.INTRA.REPUL>
0

>  <SCORE.INTRA.REPUL.0>
0

>  <SCORE.INTRA.VDW>
-0.867904

>  <SCORE.INTRA.VDW.0>
-0.316714

>  <SCORE.INTRA.norm>
0.151717

>  <SCORE.RESTR>
0

>  <SCORE.RESTR.CAVITY>
0

>  <SCORE.RESTR.norm>
0

>  <SCORE.SYSTEM>
0

>  <SCORE.SYSTEM.CONST>
0

>  <SCORE.SYSTEM.DIHEDRAL>
0

>  <SCORE.SYSTEM.norm>
0

>  <SCORE.heavy>
26

>  <SCORE.norm>
-0.430421

$$$$
design_4
 OpenBabel05252019093D

 26 28  0  0  0  0  0  0  0  0999 V2000
   43.7147  -46.3850   -0.4242 C   0  0  0  0  0  0  0  0  0  0  0  0
   44.0696  -45.5265    0.7801 C   0  0  2  0  0  0  0  0  0  0  0  0
   42.9538  -45.3902    1.6833 N   0  0  0  0  0  0  0  0  0  0  0  0
   43.0830  -45.3554    3.0889 C   0  0  0  0  0  0  0  0  0  0  0  0
   44.2161  -45.4454    3.6172 O   0  0  0  0  0  0  0  0  0  0  0  0
   41.9014  -45.2136    3.9644 C   0  0  0  0  0  0  0  0  0  0  0  0
   41.4843  -46.8100    4.6937 S   0  0  0  0  0  0  0  0  0  0  0  0
   41.1116  -46.5126    6.4358 C   0  0  0  0  0  0  0  0  0  0  0  0
   41.7779  -45.5954    7.1359 N   0  0  0  0  0  0  0  0  0  0  0  0
   41.4741  -45.3974    8.4381 C   0  0  0  0  0  0  0  0  0  0  0  0
   42.1658  -44.4439    9.1686 C   0  0  0  0  0  0  0  0  0  0  0  0
   41.8537  -44.2468   10.4899 C   0  0  0  0  0  0  0  0  0  0  0  0
   40.8638  -44.9884   11.0847 C   0  0  0  0  0  0  0  0  0  0  0  0
   40.1759  -45.9338   10.3663 C   0  0  0  0  0  0  0  0  0  0  0  0
   40.4815  -46.1399    9.0376 C   0  0  0  0  0  0  0  0  0  0  0  0
   39.8317  -47.0715    8.2577 C   0  0  0  0  0  0  0  0  0  0  0  0
   38.9212  -47.7468    8.8226 O   0  0  0  0  0  0  0  0  0  0  0  0
   40.1328  -47.2696    6.9614 N   0  0  0  0  0  0  0  0  0  0  0  0
   39.4257  -48.2649    6.1611 C   0  0  0  0  0  0  0  0  0  0  0  0
   44.4778  -44.1984    0.2556 C   0  0  0  0  0  0  0  0  0  0  0  0
   45.7156  -44.0595   -0.3357 C   0  0  0  0  0  0  0  0  0  0  0  0
   46.0788  -42.8192   -0.8175 C   0  0  0  0  0  0  0  0  0  0  0  0
   45.2406  -41.7345   -0.7198 C   0  0  0  0  0  0  0  0  0  0  0  0
   45.6393  -40.5183   -1.2114 F   0  0  0  0  0  0  0  0  0  0  0  0
   44.0087  -41.8998   -0.1244 C   0  0  0  0  0  0  0  0  0  0  0  0
   43.6103  -43.1267    0.3697 C   0  0  0  0  0  0  0  0  0  0  0  0
  2  1  1  6  0  0  0
  2  3  1  0  0  0  0
  2 20  1  0  0  0  0
  3  4  1  0  0  0  0
  4  5  2  0  0  0  0
  4  6  1  0  0  0  0
  6  7  1  0  0  0  0
  7  8  1  0  0  0  0
  8  9  2  0  0  0  0
  9 10  1  0  0  0  0
 10 11  2  0  0  0  0
 11 12  1  0  0  0  0
 12 13  2  0  0  0  0
 13 14  1  0  0  0  0
 14 15  2  0  0  0  0
 15 16  1  0  0  0  0
 15 10  1  0  0  0  0
 16 17  2  0  0  0  0
 16 18  1  0  0  0  0
 18 19  1  0  0  0  0
 18  8  1  0  0  0  0
 20 21  2  0  0  0  0
 21 22  1  0  0  0  0
 22 23  2  0  0  0  0
 23 24  1  0  0  0  0
 23 25  1  0  0  0  0
 25 26  2  0  0  0  0
 26 20  1  0  0  0  0
M  END
>  <CHROM.1>
143.16070359,103.17739144,136.56639299,-35.89168216,-75.12120540,42.44764787
-45.15114417,4.42107284,0.70272706,-1.00304361,-2.02252795

>  <Name>
design_4

>  <RI>
0

>  <Rbt.Current_Directory>
/home/ziqiaoxu/icml18-jtnn/VAEdesign

>  <Rbt.Executable>
rbdock ($Id: //depot/dev/client3/rdock/2013.1/src/exe/rbdock.cxx#4 $)

>  <Rbt.Library>
libRbt.so (2013.1, Build901 2013/11/27)

>  <Rbt.Parameter_File>
/export/apps/rDock/src/rDock_2013.1_src//data/scripts/dock.prm

>  <Rbt.Receptor>
/home/ziqiaoxu/icml18-jtnn/VAEdesign/targets/RdRp-SARS-CoV-2/pocket_docking.prm

>  <SCORE>
-15.56

>  <SCORE.INTER>
-16.1331

>  <SCORE.INTER.CONST>
1

>  <SCORE.INTER.POLAR>
0

>  <SCORE.INTER.REPUL>
0

>  <SCORE.INTER.ROT>
5

>  <SCORE.INTER.VDW>
-26.5331

>  <SCORE.INTER.norm>
-0.620503

>  <SCORE.INTRA>
0.573081

>  <SCORE.INTRA.DIHEDRAL>
1.97668

>  <SCORE.INTRA.DIHEDRAL.0>
5.256

>  <SCORE.INTRA.POLAR>
0

>  <SCORE.INTRA.POLAR.0>
0

>  <SCORE.INTRA.REPUL>
0

>  <SCORE.INTRA.REPUL.0>
0

>  <SCORE.INTRA.VDW>
-0.415261

>  <SCORE.INTRA.VDW.0>
-0.27202

>  <SCORE.INTRA.norm>
0.0220416

>  <SCORE.RESTR>
0

>  <SCORE.RESTR.CAVITY>
0

>  <SCORE.RESTR.norm>
0

>  <SCORE.SYSTEM>
0

>  <SCORE.SYSTEM.CONST>
0

>  <SCORE.SYSTEM.DIHEDRAL>
0

>  <SCORE.SYSTEM.norm>
0

>  <SCORE.heavy>
26

>  <SCORE.norm>
-0.598462

$$$$
design_16
 OpenBabel05252019093D

 25 26  0  0  0  0  0  0  0  0999 V2000
   38.7415  -49.2919    6.3733 C   0  0  0  0  0  0  0  0  0  0  0  0
   39.1797  -47.8523    6.1495 C   0  0  0  0  0  0  0  0  0  0  0  0
   38.1176  -46.9672    6.6533 N   0  0  0  0  0  0  0  0  0  0  0  0
   37.9303  -46.7989    8.0541 C   0  0  0  0  0  0  0  0  0  0  0  0
   38.8806  -45.9323    8.7673 C   0  0  0  0  0  0  0  0  0  0  0  0
   39.5922  -46.2720    9.8920 C   0  0  0  0  0  0  0  0  0  0  0  0
   40.4508  -45.3646   10.4931 C   0  0  0  0  0  0  0  0  0  0  0  0
   40.6372  -44.0950   10.0063 C   0  0  0  0  0  0  0  0  0  0  0  0
   39.9276  -43.7261    8.8649 C   0  0  0  0  0  0  0  0  0  0  0  0
   40.0589  -42.4219    8.3540 N   0  0  0  0  0  0  0  0  0  0  0  0
   39.9057  -41.2344    9.1995 C   0  0  0  0  0  0  0  0  0  0  0  0
   39.5747  -41.5184   10.3683 O   0  0  0  0  0  0  0  0  0  0  0  0
   40.1201  -40.0013    8.7007 N   0  0  0  0  0  0  0  0  0  0  0  0
   40.3382  -38.7336    8.1966 C   0  0  0  0  0  0  0  0  0  0  0  0
   40.4509  -38.4796    6.7614 C   0  0  0  0  0  0  0  0  0  0  0  0
   39.8665  -37.3895    6.1831 C   0  0  0  0  0  0  0  0  0  0  0  0
   40.0546  -37.1822    4.8403 C   0  0  0  0  0  0  0  0  0  0  0  0
   40.8067  -38.0401    4.1009 C   0  0  0  0  0  0  0  0  0  0  0  0
   41.4110  -39.1521    4.6621 C   0  0  0  0  0  0  0  0  0  0  0  0
   42.2514  -40.1145    3.9046 C   0  0  0  0  0  0  0  0  0  0  0  0
   41.2229  -39.3650    6.0116 C   0  0  0  0  0  0  0  0  0  0  0  0
   39.0719  -44.6376    8.2711 C   0  0  0  0  0  0  0  0  0  0  0  0
   37.3175  -46.2952    5.7133 C   0  0  0  0  0  0  0  0  0  0  0  0
   36.2622  -45.3623    6.1127 C   0  0  0  0  0  0  0  0  0  0  0  0
   37.5039  -46.4861    4.4828 O   0  0  0  0  0  0  0  0  0  0  0  0
  1  2  1  0  0  0  0
  2  3  1  0  0  0  0
  3  4  1  0  0  0  0
  3 23  1  0  0  0  0
  4  5  1  0  0  0  0
  5  6  2  0  0  0  0
  6  7  1  0  0  0  0
  7  8  2  0  0  0  0
  8  9  1  0  0  0  0
  9 10  1  0  0  0  0
  9 22  2  0  0  0  0
 10 11  1  0  0  0  0
 11 12  2  0  0  0  0
 11 13  1  0  0  0  0
 13 14  1  0  0  0  0
 14 15  1  0  0  0  0
 15 16  2  0  0  0  0
 16 17  1  0  0  0  0
 17 18  2  0  0  0  0
 18 19  1  0  0  0  0
 19 20  1  0  0  0  0
 19 21  2  0  0  0  0
 21 15  1  0  0  0  0
 22  5  1  0  0  0  0
 23 24  1  0  0  0  0
 23 25  2  0  0  0  0
M  END
>  <CHROM.1>
73.94256991,76.55278512,-127.52548226,-50.48485724,-166.57299978,138.65220042
39.55599962,-42.97478065,7.23060142,2.55936464,1.25915457,2.03465757

>  <Name>
design_16

>  <RI>
0

>  <Rbt.Current_Directory>
/home/ziqiaoxu/icml18-jtnn/VAEdesign

>  <Rbt.Executable>
rbdock ($Id: //depot/dev/client3/rdock/2013.1/src/exe/rbdock.cxx#4 $)

>  <Rbt.Library>
libRbt.so (2013.1, Build901 2013/11/27)

>  <Rbt.Parameter_File>
/export/apps/rDock/src/rDock_2013.1_src//data/scripts/dock.prm

>  <Rbt.Receptor>
/home/ziqiaoxu/icml18-jtnn/VAEdesign/targets/RdRp-SARS-CoV-2/pocket_docking.prm

>  <SCORE>
-15.9971

>  <SCORE.INTER>
-16.9543

>  <SCORE.INTER.CONST>
1

>  <SCORE.INTER.POLAR>
-0.813261

>  <SCORE.INTER.REPUL>
0.187314

>  <SCORE.INTER.ROT>
6

>  <SCORE.INTER.VDW>
-26.5258

>  <SCORE.INTER.norm>
-0.678173

>  <SCORE.INTRA>
0.957216

>  <SCORE.INTRA.DIHEDRAL>
2.33564

>  <SCORE.INTRA.DIHEDRAL.0>
9.62352

>  <SCORE.INTRA.POLAR>
0

>  <SCORE.INTRA.POLAR.0>
0

>  <SCORE.INTRA.REPUL>
0

>  <SCORE.INTRA.REPUL.0>
0

>  <SCORE.INTRA.VDW>
-0.210602

>  <SCORE.INTRA.VDW.0>
-1.4249

>  <SCORE.INTRA.norm>
0.0382886

>  <SCORE.RESTR>
0

>  <SCORE.RESTR.CAVITY>
0

>  <SCORE.RESTR.norm>
0

>  <SCORE.SYSTEM>
0

>  <SCORE.SYSTEM.CONST>
0

>  <SCORE.SYSTEM.DIHEDRAL>
0

>  <SCORE.SYSTEM.norm>
0

>  <SCORE.heavy>
25

>  <SCORE.norm>
-0.639884

$$$$
design_5
 OpenBabel05252019093D

 26 29  0  0  0  0  0  0  0  0999 V2000
   48.7039  -48.1984   -0.1972 C   0  0  0  0  0  0  0  0  0  0  0  0
   47.3409  -47.8138    0.0438 O   0  0  0  0  0  0  0  0  0  0  0  0
   47.0550  -47.2658    1.2894 C   0  0  0  0  0  0  0  0  0  0  0  0
   47.9218  -47.3888    2.3626 C   0  0  0  0  0  0  0  0  0  0  0  0
   47.6049  -46.8364    3.5706 C   0  0  0  0  0  0  0  0  0  0  0  0
   46.4211  -46.1327    3.7963 C   0  0  0  0  0  0  0  0  0  0  0  0
   46.1749  -45.6533    5.0906 N   0  0  0  0  0  0  0  0  0  0  0  0
   44.9018  -45.2858    5.5725 C   0  0  0  0  0  0  0  0  0  0  0  0
   43.8995  -45.3531    4.8451 O   0  0  0  0  0  0  0  0  0  0  0  0
   44.7989  -44.8032    7.0117 C   0  0  0  0  0  0  0  0  0  0  0  0
   43.5120  -45.2392    7.5272 N   0  0  0  0  0  0  0  0  0  0  0  0
   42.7528  -46.1225    6.9736 N   0  0  0  0  0  0  0  0  0  0  0  0
   41.6059  -46.3375    7.7024 C   0  0  0  0  0  0  0  0  0  0  0  0
   40.5528  -47.2749    7.3723 C   0  0  0  0  0  0  0  0  0  0  0  0
   39.4668  -47.7098    8.0543 C   0  0  0  0  0  0  0  0  0  0  0  0
   38.7643  -48.6408    7.2663 C   0  0  0  0  0  0  0  0  0  0  0  0
   39.5207  -48.7015    6.0996 C   0  0  0  0  0  0  0  0  0  0  0  0
   40.5301  -47.9055    6.2080 O   0  0  0  0  0  0  0  0  0  0  0  0
   41.7021  -45.5263    8.7521 N   0  0  0  0  0  0  0  0  0  0  0  0
   40.8160  -45.3473    9.8493 C   0  0  0  0  0  0  0  0  0  0  0  0
   39.4375  -44.7056    9.5070 C   0  0  0  0  0  0  0  0  0  0  0  0
   40.4210  -44.0221   10.3837 C   0  0  0  0  0  0  0  0  0  0  0  0
   42.8797  -44.8432    8.6471 C   0  0  0  0  0  0  0  0  0  0  0  0
   43.3761  -43.9774    9.4058 O   0  0  0  0  0  0  0  0  0  0  0  0
   45.5810  -46.0245    2.7227 C   0  0  0  0  0  0  0  0  0  0  0  0
   45.8933  -46.5803    1.4945 C   0  0  0  0  0  0  0  0  0  0  0  0
  1  2  1  0  0  0  0
  2  3  1  0  0  0  0
  3  4  2  0  0  0  0
  4  5  1  0  0  0  0
  5  6  2  0  0  0  0
  6  7  1  0  0  0  0
  6 25  1  0  0  0  0
  7  8  1  0  0  0  0
  8  9  2  0  0  0  0
  8 10  1  0  0  0  0
 10 11  1  0  0  0  0
 11 12  1  0  0  0  0
 12 13  2  0  0  0  0
 13 14  1  0  0  0  0
 13 19  1  0  0  0  0
 14 15  2  0  0  0  0
 15 16  1  0  0  0  0
 16 17  2  0  0  0  0
 17 18  1  0  0  0  0
 18 14  1  0  0  0  0
 19 20  1  0  0  0  0
 19 23  1  0  0  0  0
 20 21  1  0  0  0  0
 21 22  1  0  0  0  0
 22 20  1  0  0  0  0
 23 24  2  0  0  0  0
 23 11  1  0  0  0  0
 25 26  2  0  0  0  0
 26  3  1  0  0  0  0
M  END
>  <CHROM.1>
-16.17595544,-160.57099426,-146.37904615,14.44424003,170.76595381,-67.55350959
43.54948947,-46.28260799,5.80583270,0.70687729,-0.45915142,-2.22066932

>  <Name>
design_5

>  <RI>
0

>  <Rbt.Current_Directory>
/home/ziqiaoxu/icml18-jtnn/VAEdesign

>  <Rbt.Executable>
rbdock ($Id: //depot/dev/client3/rdock/2013.1/src/exe/rbdock.cxx#4 $)

>  <Rbt.Library>
libRbt.so (2013.1, Build901 2013/11/27)

>  <Rbt.Parameter_File>
/export/apps/rDock/src/rDock_2013.1_src//data/scripts/dock.prm

>  <Rbt.Receptor>
/home/ziqiaoxu/icml18-jtnn/VAEdesign/targets/RdRp-SARS-CoV-2/pocket_docking.prm

>  <SCORE>
-15.6366

>  <SCORE.INTER>
-15.2316

>  <SCORE.INTER.CONST>
1

>  <SCORE.INTER.POLAR>
-0.0380723

>  <SCORE.INTER.REPUL>
0.00409156

>  <SCORE.INTER.ROT>
6

>  <SCORE.INTER.VDW>
-26.5227

>  <SCORE.INTER.norm>
-0.585833

>  <SCORE.INTRA>
-0.40491

>  <SCORE.INTRA.DIHEDRAL>
-1.17911

>  <SCORE.INTRA.DIHEDRAL.0>
9.19752

>  <SCORE.INTRA.POLAR>
0

>  <SCORE.INTRA.POLAR.0>
0

>  <SCORE.INTRA.REPUL>
0

>  <SCORE.INTRA.REPUL.0>
0

>  <SCORE.INTRA.VDW>
0.184646

>  <SCORE.INTRA.VDW.0>
1.14963

>  <SCORE.INTRA.norm>
-0.0155735

>  <SCORE.RESTR>
0

>  <SCORE.RESTR.CAVITY>
0

>  <SCORE.RESTR.norm>
0

>  <SCORE.SYSTEM>
0

>  <SCORE.SYSTEM.CONST>
0

>  <SCORE.SYSTEM.DIHEDRAL>
0

>  <SCORE.SYSTEM.norm>
0

>  <SCORE.heavy>
26

>  <SCORE.norm>
-0.601406

$$$$
design_16
 OpenBabel05252019093D

 24 26  0  0  0  0  0  0  0  0999 V2000
   40.8797  -39.2469    1.4178 C   0  0  0  0  0  0  0  0  0  0  0  0
   40.6514  -38.7094    2.4735 C   0  0  0  0  0  0  0  0  0  0  0  0
   40.4001  -38.0688    3.7461 C   0  0  0  0  0  0  0  0  0  0  0  0
   40.2878  -36.6893    3.7883 C   0  0  0  0  0  0  0  0  0  0  0  0
   40.0474  -36.0182    4.9781 C   0  0  0  0  0  0  0  0  0  0  0  0
   39.9238  -36.7663    6.1174 C   0  0  0  0  0  0  0  0  0  0  0  0
   40.0254  -38.1353    6.1381 C   0  0  0  0  0  0  0  0  0  0  0  0
   39.8966  -38.9036    7.3195 N   0  0  0  0  0  0  0  0  0  0  0  0
   39.9178  -40.3449    7.2891 C   0  0  0  0  0  0  0  0  0  0  0  0
   40.0319  -40.9260    8.6490 C   0  0  0  0  0  0  0  0  0  0  0  0
   40.5233  -40.2086    9.5472 O   0  0  0  0  0  0  0  0  0  0  0  0
   39.6119  -42.2393    8.9595 N   0  0  0  0  0  0  0  0  0  0  0  0
   39.7102  -42.8310   10.2592 C   0  0  0  0  0  0  0  0  0  0  0  0
   40.7178  -43.9273   10.3599 C   0  0  0  0  0  0  0  0  0  0  0  0
   40.3822  -45.0553    9.4501 C   0  0  0  0  0  0  0  0  0  0  0  0
   41.0185  -45.3048    8.2942 N   0  0  0  0  0  0  0  0  0  0  0  0
   40.4487  -46.3835    7.7585 C   0  0  0  0  0  0  0  0  0  0  0  0
   40.7261  -47.0470    6.5853 C   0  0  0  0  0  0  0  0  0  0  0  0
   39.9633  -48.1560    6.2722 C   0  0  0  0  0  0  0  0  0  0  0  0
   38.9557  -48.5788    7.1160 C   0  0  0  0  0  0  0  0  0  0  0  0
   38.6858  -47.9070    8.2890 C   0  0  0  0  0  0  0  0  0  0  0  0
   39.4449  -46.7961    8.6092 C   0  0  0  0  0  0  0  0  0  0  0  0
   39.4170  -45.9555    9.6608 N   0  0  0  0  0  0  0  0  0  0  0  0
   40.2683  -38.7803    4.9197 C   0  0  0  0  0  0  0  0  0  0  0  0
  1  2  3  0  0  0  0
  2  3  1  0  0  0  0
  3  4  2  0  0  0  0
  4  5  1  0  0  0  0
  5  6  2  0  0  0  0
  6  7  1  0  0  0  0
  7  8  1  0  0  0  0
  7 24  2  0  0  0  0
  8  9  1  0  0  0  0
  9 10  1  0  0  0  0
 10 11  2  0  0  0  0
 10 12  1  0  0  0  0
 12 13  1  0  0  0  0
 13 14  1  0  0  0  0
 14 15  1  0  0  0  0
 15 16  2  0  0  0  0
 16 17  1  0  0  0  0
 17 18  2  0  0  0  0
 18 19  1  0  0  0  0
 19 20  2  0  0  0  0
 20 21  1  0  0  0  0
 21 22  2  0  0  0  0
 22 23  1  0  0  0  0
 22 17  1  0  0  0  0
 23 15  1  0  0  0  0
 24  3  1  0  0  0  0
M  END
>  <CHROM.1>
105.83429217,175.67677527,168.92876946,-23.00689850,-110.61865483,-61.36773161
104.61023324,40.07339566,-42.20787542,7.09041962,-0.63252471,-1.51107537
-2.58985735

>  <Name>
design_16

>  <RI>
0

>  <Rbt.Current_Directory>
/home/ziqiaoxu/icml18-jtnn/VAEdesign

>  <Rbt.Executable>
rbdock ($Id: //depot/dev/client3/rdock/2013.1/src/exe/rbdock.cxx#4 $)

>  <Rbt.Library>
libRbt.so (2013.1, Build901 2013/11/27)

>  <Rbt.Parameter_File>
/export/apps/rDock/src/rDock_2013.1_src//data/scripts/dock.prm

>  <Rbt.Receptor>
/home/ziqiaoxu/icml18-jtnn/VAEdesign/targets/RdRp-SARS-CoV-2/pocket_docking.prm

>  <SCORE>
-19.2383

>  <SCORE.INTER>
-18.6459

>  <SCORE.INTER.CONST>
1

>  <SCORE.INTER.POLAR>
-1.3546

>  <SCORE.INTER.REPUL>
0.0163625

>  <SCORE.INTER.ROT>
7

>  <SCORE.INTER.VDW>
-26.522

>  <SCORE.INTER.norm>
-0.776911

>  <SCORE.INTRA>
-0.60978

>  <SCORE.INTRA.DIHEDRAL>
0.07941

>  <SCORE.INTRA.DIHEDRAL.0>
6.28409

>  <SCORE.INTRA.POLAR>
0

>  <SCORE.INTRA.POLAR.0>
0

>  <SCORE.INTRA.REPUL>
0

>  <SCORE.INTRA.REPUL.0>
0

>  <SCORE.INTRA.VDW>
-0.649485

>  <SCORE.INTRA.VDW.0>
0.028194

>  <SCORE.INTRA.norm>
-0.0254075

>  <SCORE.RESTR>
0.0173763

>  <SCORE.RESTR.CAVITY>
0.0173763

>  <SCORE.RESTR.norm>
0.000724013

>  <SCORE.SYSTEM>
0

>  <SCORE.SYSTEM.CONST>
0

>  <SCORE.SYSTEM.DIHEDRAL>
0

>  <SCORE.SYSTEM.norm>
0

>  <SCORE.heavy>
24

>  <SCORE.norm>
-0.801595

$$$$
design_17
 OpenBabel05252019093D

 23 25  0  0  0  0  0  0  0  0999 V2000
   37.9020  -42.5731    6.3216 C   0  0  0  0  0  0  0  0  0  0  0  0
   37.5155  -43.9917    6.0576 C   0  0  0  0  0  0  0  0  0  0  0  0
   38.2778  -45.0560    6.2022 N   0  0  0  0  0  0  0  0  0  0  0  0
   37.7912  -46.2381    5.9299 C   0  0  0  0  0  0  0  0  0  0  0  0
   38.6211  -47.4948    6.0781 C   0  0  0  0  0  0  0  0  0  0  0  0
   39.0733  -47.7139    7.3639 O   0  0  0  0  0  0  0  0  0  0  0  0
   39.7582  -46.8846    8.2054 C   0  0  0  0  0  0  0  0  0  0  0  0
   39.2744  -46.4693    9.4295 C   0  0  0  0  0  0  0  0  0  0  0  0
   40.0401  -45.6360   10.1961 C   0  0  0  0  0  0  0  0  0  0  0  0
   41.2736  -45.2245    9.7438 C   0  0  0  0  0  0  0  0  0  0  0  0
   41.7847  -45.6333    8.5063 C   0  0  0  0  0  0  0  0  0  0  0  0
   43.0873  -45.1674    8.0698 C   0  0  0  0  0  0  0  0  0  0  0  0
   43.6940  -44.3869    8.8232 O   0  0  0  0  0  0  0  0  0  0  0  0
   43.6234  -45.5944    6.8417 N   0  0  0  0  0  0  0  0  0  0  0  0
   44.8936  -45.1811    6.3436 C   0  0  0  0  0  0  0  0  0  0  0  0
   45.4400  -45.5983    5.1252 C   0  0  0  0  0  0  0  0  0  0  0  0
   46.6208  -45.0088    5.0084 N   0  0  0  0  0  0  0  0  0  0  0  0
   46.8865  -44.2459    6.0461 N   0  0  0  0  0  0  0  0  0  0  0  0
   48.0822  -43.4423    6.2767 C   0  0  0  0  0  0  0  0  0  0  0  0
   45.8284  -44.3396    6.8838 C   0  0  0  0  0  0  0  0  0  0  0  0
   41.0190  -46.4661    7.7394 C   0  0  0  0  0  0  0  0  0  0  0  0
   36.4923  -46.3022    5.5019 C   0  0  0  0  0  0  0  0  0  0  0  0
   36.0438  -44.6520    5.5158 S   0  0  0  0  0  0  0  0  0  0  0  0
  1  2  1  0  0  0  0
  2  3  2  0  0  0  0
  3  4  1  0  0  0  0
  4  5  1  0  0  0  0
  4 22  2  0  0  0  0
  5  6  1  0  0  0  0
  6  7  1  0  0  0  0
  7  8  2  0  0  0  0
  8  9  1  0  0  0  0
  9 10  2  0  0  0  0
 10 11  1  0  0  0  0
 11 12  1  0  0  0  0
 11 21  2  0  0  0  0
 12 13  2  0  0  0  0
 12 14  1  0  0  0  0
 14 15  1  0  0  0  0
 15 16  1  0  0  0  0
 16 17  2  0  0  0  0
 17 18  1  0  0  0  0
 18 19  1  0  0  0  0
 18 20  1  0  0  0  0
 20 15  2  0  0  0  0
 21  7  1  0  0  0  0
 22 23  1  0  0  0  0
 23  2  1  0  0  0  0
M  END
>  <CHROM.1>
60.39159860,-52.49622384,118.85860746,-1.34250223,179.93224288,41.17841323
-45.30524771,6.95279198,3.11042184,0.09084506,1.97671375

>  <Name>
design_17

>  <RI>
0

>  <Rbt.Current_Directory>
/home/ziqiaoxu/icml18-jtnn/VAEdesign

>  <Rbt.Executable>
rbdock ($Id: //depot/dev/client3/rdock/2013.1/src/exe/rbdock.cxx#4 $)

>  <Rbt.Library>
libRbt.so (2013.1, Build901 2013/11/27)

>  <Rbt.Parameter_File>
/export/apps/rDock/src/rDock_2013.1_src//data/scripts/dock.prm

>  <Rbt.Receptor>
/home/ziqiaoxu/icml18-jtnn/VAEdesign/targets/RdRp-SARS-CoV-2/pocket_docking.prm

>  <SCORE>
-15.7704

>  <SCORE.INTER>
-16.122

>  <SCORE.INTER.CONST>
1

>  <SCORE.INTER.POLAR>
0

>  <SCORE.INTER.REPUL>
0

>  <SCORE.INTER.ROT>
5

>  <SCORE.INTER.VDW>
-26.522

>  <SCORE.INTER.norm>
-0.700955

>  <SCORE.INTRA>
0.351586

>  <SCORE.INTRA.DIHEDRAL>
1.41166

>  <SCORE.INTRA.DIHEDRAL.0>
2.79257

>  <SCORE.INTRA.POLAR>
0

>  <SCORE.INTRA.POLAR.0>
0

>  <SCORE.INTRA.REPUL>
0

>  <SCORE.INTRA.REPUL.0>
0

>  <SCORE.INTRA.VDW>
-0.354246

>  <SCORE.INTRA.VDW.0>
-1.08509

>  <SCORE.INTRA.norm>
0.0152863

>  <SCORE.RESTR>
0

>  <SCORE.RESTR.CAVITY>
0

>  <SCORE.RESTR.norm>
0

>  <SCORE.SYSTEM>
0

>  <SCORE.SYSTEM.CONST>
0

>  <SCORE.SYSTEM.DIHEDRAL>
0

>  <SCORE.SYSTEM.norm>
0

>  <SCORE.heavy>
23

>  <SCORE.norm>
-0.685669

$$$$
design_16
 OpenBabel05252019093D

 24 25  0  0  0  0  0  0  0  0999 V2000
   41.8417  -46.1161    4.3133 C   0  0  0  0  0  0  0  0  0  0  0  0
   42.2907  -45.0081    3.4149 C   0  0  0  0  0  0  0  0  0  0  0  0
   43.6820  -45.0645    3.0211 N   0  0  0  0  0  0  0  0  0  0  0  0
   44.7039  -44.5272    3.8981 C   0  0  0  0  0  0  0  0  0  0  0  0
   45.8889  -44.3466    3.5188 O   0  0  0  0  0  0  0  0  0  0  0  0
   44.3730  -44.1801    5.2969 C   0  0  0  0  0  0  0  0  0  0  0  0
   45.2369  -44.9749    6.2384 C   0  0  0  0  0  0  0  0  0  0  0  0
   44.5846  -44.9729    7.6280 C   0  0  0  0  0  0  0  0  0  0  0  0
   43.3263  -45.6805    7.5921 N   0  0  0  0  0  0  0  0  0  0  0  0
   42.3315  -45.3292    8.5203 C   0  0  0  0  0  0  0  0  0  0  0  0
   42.5066  -44.4146    9.3552 O   0  0  0  0  0  0  0  0  0  0  0  0
   41.0532  -46.0153    8.5600 C   0  0  0  0  0  0  0  0  0  0  0  0
   40.0477  -45.7709    9.4695 C   0  0  0  0  0  0  0  0  0  0  0  0
   38.8468  -46.4442    9.4040 C   0  0  0  0  0  0  0  0  0  0  0  0
   38.6278  -47.3904    8.4095 C   0  0  0  0  0  0  0  0  0  0  0  0
   39.6400  -47.6250    7.5074 C   0  0  0  0  0  0  0  0  0  0  0  0
   39.3857  -48.6372    6.4416 C   0  0  0  0  0  0  0  0  0  0  0  0
   40.8373  -46.9681    7.5550 C   0  0  0  0  0  0  0  0  0  0  0  0
   44.0613  -45.5944    1.7673 C   0  0  0  0  0  0  0  0  0  0  0  0
   45.3536  -45.9460    1.4454 C   0  0  0  0  0  0  0  0  0  0  0  0
   45.7100  -46.4741    0.2265 C   0  0  0  0  0  0  0  0  0  0  0  0
   44.7213  -46.6683   -0.7442 C   0  0  0  0  0  0  0  0  0  0  0  0
   43.4216  -46.3235   -0.4470 C   0  0  0  0  0  0  0  0  0  0  0  0
   43.0915  -45.7952    0.7860 C   0  0  0  0  0  0  0  0  0  0  0  0
  1  2  1  0  0  0  0
  2  3  1  0  0  0  0
  3  4  1  0  0  0  0
  3 19  1  0  0  0  0
  4  5  2  0  0  0  0
  4  6  1  0  0  0  0
  6  7  1  0  0  0  0
  7  8  1  0  0  0  0
  8  9  1  0  0  0  0
  9 10  1  0  0  0  0
 10 11  2  0  0  0  0
 10 12  1  0  0  0  0
 12 13  2  0  0  0  0
 13 14  1  0  0  0  0
 14 15  2  0  0  0  0
 15 16  1  0  0  0  0
 16 17  1  0  0  0  0
 16 18  2  0  0  0  0
 18 12  1  0  0  0  0
 19 20  2  0  0  0  0
 20 21  1  0  0  0  0
 21 22  2  0  0  0  0
 22 23  1  0  0  0  0
 23 24  2  0  0  0  0
 24 19  1  0  0  0  0
M  END
>  <CHROM.1>
-83.54815965,120.83755466,-161.07471140,65.46751952,-152.87697212,177.23291983
-165.33994151,42.76151210,-45.82279734,5.15809543,0.98380838,-0.51235558
-1.80367393

>  <Name>
design_16

>  <RI>
0

>  <Rbt.Current_Directory>
/home/ziqiaoxu/icml18-jtnn/VAEdesign

>  <Rbt.Executable>
rbdock ($Id: //depot/dev/client3/rdock/2013.1/src/exe/rbdock.cxx#4 $)

>  <Rbt.Library>
libRbt.so (2013.1, Build901 2013/11/27)

>  <Rbt.Parameter_File>
/export/apps/rDock/src/rDock_2013.1_src//data/scripts/dock.prm

>  <Rbt.Receptor>
/home/ziqiaoxu/icml18-jtnn/VAEdesign/targets/RdRp-SARS-CoV-2/pocket_docking.prm

>  <SCORE>
-18.6996

>  <SCORE.INTER>
-14.1124

>  <SCORE.INTER.CONST>
1

>  <SCORE.INTER.POLAR>
0

>  <SCORE.INTER.REPUL>
0

>  <SCORE.INTER.ROT>
7

>  <SCORE.INTER.VDW>
-26.5124

>  <SCORE.INTER.norm>
-0.588016

>  <SCORE.INTRA>
-4.58719

>  <SCORE.INTRA.DIHEDRAL>
-10.6855

>  <SCORE.INTRA.DIHEDRAL.0>
18.1968

>  <SCORE.INTRA.POLAR>
0

>  <SCORE.INTRA.POLAR.0>
0

>  <SCORE.INTRA.REPUL>
0

>  <SCORE.INTRA.REPUL.0>
0

>  <SCORE.INTRA.VDW>
0.755577

>  <SCORE.INTRA.VDW.0>
-0.357813

>  <SCORE.INTRA.norm>
-0.191133

>  <SCORE.RESTR>
0

>  <SCORE.RESTR.CAVITY>
0

>  <SCORE.RESTR.norm>
0

>  <SCORE.SYSTEM>
0

>  <SCORE.SYSTEM.CONST>
0

>  <SCORE.SYSTEM.DIHEDRAL>
0

>  <SCORE.SYSTEM.norm>
0

>  <SCORE.heavy>
24

>  <SCORE.norm>
-0.779149

$$$$
design_2
 OpenBabel05252019093D

 24 25  0  0  0  0  0  0  0  0999 V2000
   45.9083  -43.4634    7.8324 C   0  0  0  0  0  0  0  0  0  0  0  0
   44.6375  -44.2460    7.8018 C   0  0  0  0  0  0  0  0  0  0  0  0
   43.6576  -44.0105    8.7217 C   0  0  0  0  0  0  0  0  0  0  0  0
   42.4576  -44.7388    8.7204 C   0  0  0  0  0  0  0  0  0  0  0  0
   42.2065  -45.7238    7.7979 C   0  0  0  0  0  0  0  0  0  0  0  0
   40.9997  -46.5276    7.7370 C   0  0  0  0  0  0  0  0  0  0  0  0
   40.8958  -47.2741    6.6750 O   0  0  0  0  0  0  0  0  0  0  0  0
   39.9398  -46.6377    8.6164 N   0  0  0  0  0  0  0  0  0  0  0  0
   39.6871  -46.0009    9.8667 C   0  0  0  0  0  0  0  0  0  0  0  0
   38.8515  -47.5769    8.2084 C   0  0  0  0  0  0  0  0  0  0  0  0
   43.2299  -45.9502    6.8585 C   0  0  0  0  0  0  0  0  0  0  0  0
   44.4111  -45.2456    6.8458 C   0  0  0  0  0  0  0  0  0  0  0  0
   45.4405  -45.4460    5.9109 N   0  0  0  0  0  0  0  0  0  0  0  0
   45.9568  -44.5483    4.9519 C   0  0  0  0  0  0  0  0  0  0  0  0
   45.5365  -43.3598    4.7792 O   0  0  0  0  0  0  0  0  0  0  0  0
   47.0743  -44.9608    4.0499 C   0  0  0  0  0  0  0  0  0  0  0  0
   46.8613  -46.5317    3.2541 S   0  0  0  0  0  0  0  0  0  0  0  0
   45.8384  -46.4042    1.8011 C   0  0  0  0  0  0  0  0  0  0  0  0
   44.5303  -45.9319    1.8149 C   0  0  0  0  0  0  0  0  0  0  0  0
   43.7495  -45.8213    0.6775 C   0  0  0  0  0  0  0  0  0  0  0  0
   44.2693  -46.1901   -0.5357 C   0  0  0  0  0  0  0  0  0  0  0  0
   45.5630  -46.6596   -0.5649 C   0  0  0  0  0  0  0  0  0  0  0  0
   46.3481  -46.7743    0.5502 C   0  0  0  0  0  0  0  0  0  0  0  0
   47.7323  -47.2845    0.4323 C   0  0  0  0  0  0  0  0  0  0  0  0
  1  2  1  0  0  0  0
  2  3  2  0  0  0  0
  3  4  1  0  0  0  0
  4  5  2  0  0  0  0
  5  6  1  0  0  0  0
  5 11  1  0  0  0  0
  6  7  2  0  0  0  0
  6  8  1  0  0  0  0
  8  9  1  0  0  0  0
  8 10  1  0  0  0  0
 11 12  2  0  0  0  0
 12 13  1  0  0  0  0
 12  2  1  0  0  0  0
 13 14  1  0  0  0  0
 14 15  2  0  0  0  0
 14 16  1  0  0  0  0
 16 17  1  0  0  0  0
 17 18  1  0  0  0  0
 18 19  2  0  0  0  0
 19 20  1  0  0  0  0
 20 21  2  0  0  0  0
 21 22  1  0  0  0  0
 22 23  2  0  0  0  0
 23 24  1  0  0  0  0
 23 18  1  0  0  0  0
M  END
>  <CHROM.1>
171.05428571,-62.33573500,48.29323087,82.13682837,-58.86949284,44.11474024
-45.77100989,5.06509226,-2.23181787,-0.41755219,-1.92489245

>  <Name>
design_2

>  <RI>
0

>  <Rbt.Current_Directory>
/home/ziqiaoxu/icml18-jtnn/VAEdesign

>  <Rbt.Executable>
rbdock ($Id: //depot/dev/client3/rdock/2013.1/src/exe/rbdock.cxx#4 $)

>  <Rbt.Library>
libRbt.so (2013.1, Build901 2013/11/27)

>  <Rbt.Parameter_File>
/export/apps/rDock/src/rDock_2013.1_src//data/scripts/dock.prm

>  <Rbt.Receptor>
/home/ziqiaoxu/icml18-jtnn/VAEdesign/targets/RdRp-SARS-CoV-2/pocket_docking.prm

>  <SCORE>
-16.1767

>  <SCORE.INTER>
-19.1406

>  <SCORE.INTER.CONST>
1

>  <SCORE.INTER.POLAR>
-0.894427

>  <SCORE.INTER.REPUL>
0

>  <SCORE.INTER.ROT>
5

>  <SCORE.INTER.VDW>
-26.4996

>  <SCORE.INTER.norm>
-0.797526

>  <SCORE.INTRA>
2.96392

>  <SCORE.INTRA.DIHEDRAL>
10.8466

>  <SCORE.INTRA.DIHEDRAL.0>
3.61686

>  <SCORE.INTRA.POLAR>
0

>  <SCORE.INTRA.POLAR.0>
0

>  <SCORE.INTRA.REPUL>
0

>  <SCORE.INTRA.REPUL.0>
0

>  <SCORE.INTRA.VDW>
-2.4594

>  <SCORE.INTRA.VDW.0>
0.830036

>  <SCORE.INTRA.norm>
0.123497

>  <SCORE.RESTR>
0

>  <SCORE.RESTR.CAVITY>
0

>  <SCORE.RESTR.norm>
0

>  <SCORE.SYSTEM>
0

>  <SCORE.SYSTEM.CONST>
0

>  <SCORE.SYSTEM.DIHEDRAL>
0

>  <SCORE.SYSTEM.norm>
0

>  <SCORE.heavy>
24

>  <SCORE.norm>
-0.67403

$$$$
design_11
 OpenBabel05252019093D

 24 26  0  0  0  0  0  0  0  0999 V2000
   43.1849  -43.7572    8.1276 O   0  0  0  0  0  0  0  0  0  0  0  0
   44.0795  -44.6216    8.0197 C   0  0  0  0  0  0  0  0  0  0  0  0
   44.1087  -45.5294    6.8573 C   0  0  0  0  0  0  0  0  0  0  0  0
   42.6936  -45.9906    6.5579 C   0  0  0  0  0  0  0  0  0  0  0  0
   42.2360  -46.0094    5.2629 C   0  0  0  0  0  0  0  0  0  0  0  0
   40.6401  -46.5893    5.4770 S   0  0  0  0  0  0  0  0  0  0  0  0
   40.6564  -46.7683    7.1744 C   0  0  0  0  0  0  0  0  0  0  0  0
   39.5621  -47.2499    8.0981 C   0  0  0  0  0  0  0  0  0  0  0  0
   38.3870  -47.3144    7.3274 O   0  0  0  0  0  0  0  0  0  0  0  0
   37.7719  -46.1908    6.7926 C   0  0  0  0  0  0  0  0  0  0  0  0
   38.3038  -44.9340    6.9794 C   0  0  0  0  0  0  0  0  0  0  0  0
   37.6978  -43.8097    6.4504 C   0  0  0  0  0  0  0  0  0  0  0  0
   36.5368  -43.9478    5.7202 C   0  0  0  0  0  0  0  0  0  0  0  0
   35.8784  -42.9047    5.1674 F   0  0  0  0  0  0  0  0  0  0  0  0
   35.9909  -45.2110    5.5250 C   0  0  0  0  0  0  0  0  0  0  0  0
   36.6178  -46.3138    6.0650 C   0  0  0  0  0  0  0  0  0  0  0  0
   41.8807  -46.3751    7.4854 N   0  0  0  0  0  0  0  0  0  0  0  0
   45.0814  -44.7419    9.0156 N   0  0  0  0  0  0  0  0  0  0  0  0
   45.0357  -43.8420   10.1496 C   0  0  0  0  0  0  0  0  0  0  0  0
   46.4213  -43.9255   10.8033 C   0  0  0  0  0  0  0  0  0  0  0  0
   46.4713  -45.1858   11.6089 C   0  0  0  0  0  0  0  0  0  0  0  0
   45.5792  -45.0745   12.8274 C   0  0  0  0  0  0  0  0  0  0  0  0
   44.4284  -44.1171   12.5728 C   0  0  0  0  0  0  0  0  0  0  0  0
   43.9629  -44.2390   11.1390 C   0  0  0  0  0  0  0  0  0  0  0  0
  1  2  2  0  0  0  0
  2  3  1  0  0  0  0
  2 18  1  0  0  0  0
  3  4  1  0  0  0  0
  4  5  2  0  0  0  0
  5  6  1  0  0  0  0
  6  7  1  0  0  0  0
  7  8  1  0  0  0  0
  7 17  2  0  0  0  0
  8  9  1  0  0  0  0
  9 10  1  0  0  0  0
 10 11  2  0  0  0  0
 11 12  1  0  0  0  0
 12 13  2  0  0  0  0
 13 14  1  0  0  0  0
 13 15  1  0  0  0  0
 15 16  2  0  0  0  0
 16 10  1  0  0  0  0
 17  4  1  0  0  0  0
 18 19  1  0  0  0  0
 19 20  1  0  0  0  0
 20 21  1  0  0  0  0
 21 22  1  0  0  0  0
 22 23  1  0  0  0  0
 23 24  1  0  0  0  0
 24 19  1  0  0  0  0
M  END
>  <CHROM.1>
-42.03560740,135.33696530,-10.47093199,-65.96759821,0.90674859,-163.75679664
41.33838502,-45.23170248,7.85165133,0.49260517,-0.26119097,0.99542416

>  <Name>
design_11

>  <RI>
0

>  <Rbt.Current_Directory>
/home/ziqiaoxu/icml18-jtnn/VAEdesign

>  <Rbt.Executable>
rbdock ($Id: //depot/dev/client3/rdock/2013.1/src/exe/rbdock.cxx#4 $)

>  <Rbt.Library>
libRbt.so (2013.1, Build901 2013/11/27)

>  <Rbt.Parameter_File>
/export/apps/rDock/src/rDock_2013.1_src//data/scripts/dock.prm

>  <Rbt.Receptor>
/home/ziqiaoxu/icml18-jtnn/VAEdesign/targets/RdRp-SARS-CoV-2/pocket_docking.prm

>  <SCORE>
-18.7162

>  <SCORE.INTER>
-18.1382

>  <SCORE.INTER.CONST>
1

>  <SCORE.INTER.POLAR>
-0.894427

>  <SCORE.INTER.REPUL>
0

>  <SCORE.INTER.ROT>
6

>  <SCORE.INTER.VDW>
-26.4972

>  <SCORE.INTER.norm>
-0.755759

>  <SCORE.INTRA>
-0.577969

>  <SCORE.INTRA.DIHEDRAL>
-0.727794

>  <SCORE.INTRA.DIHEDRAL.0>
5.19932

>  <SCORE.INTRA.POLAR>
0

>  <SCORE.INTRA.POLAR.0>
0

>  <SCORE.INTRA.REPUL>
0

>  <SCORE.INTRA.REPUL.0>
0

>  <SCORE.INTRA.VDW>
-0.214072

>  <SCORE.INTRA.VDW.0>
-0.36231

>  <SCORE.INTRA.norm>
-0.024082

>  <SCORE.RESTR>
0

>  <SCORE.RESTR.CAVITY>
0

>  <SCORE.RESTR.norm>
0

>  <SCORE.SYSTEM>
0

>  <SCORE.SYSTEM.CONST>
0

>  <SCORE.SYSTEM.DIHEDRAL>
0

>  <SCORE.SYSTEM.norm>
0

>  <SCORE.heavy>
24

>  <SCORE.norm>
-0.779841

$$$$
design_5
 OpenBabel05252019093D

 23 25  0  0  0  0  0  0  0  0999 V2000
   41.1711  -42.5761    8.7044 O   0  0  0  0  0  0  0  0  0  0  0  0
   40.2136  -42.6786    9.4987 C   0  0  0  0  0  0  0  0  0  0  0  0
   39.3447  -41.5166    9.8331 C   0  0  0  0  0  0  0  0  0  0  0  0
   39.6436  -40.3636    8.8963 C   0  0  0  0  0  0  0  0  0  0  0  0
   40.6262  -39.4524    9.2150 C   0  0  0  0  0  0  0  0  0  0  0  0
   40.5580  -38.3964    7.8727 S   0  0  0  0  0  0  0  0  0  0  0  0
   39.3019  -39.1699    7.0036 C   0  0  0  0  0  0  0  0  0  0  0  0
   38.6589  -38.8330    5.6984 C   0  0  0  0  0  0  0  0  0  0  0  0
   39.6171  -38.2718    4.7520 C   0  0  0  0  0  0  0  0  0  0  0  0
   39.7285  -36.8987    4.6693 C   0  0  0  0  0  0  0  0  0  0  0  0
   40.6096  -36.2879    3.8016 C   0  0  0  0  0  0  0  0  0  0  0  0
   41.4077  -37.0622    2.9882 C   0  0  0  0  0  0  0  0  0  0  0  0
   41.2878  -38.4283    3.0798 C   0  0  0  0  0  0  0  0  0  0  0  0
   40.4115  -39.0579    3.9422 C   0  0  0  0  0  0  0  0  0  0  0  0
   39.0080  -40.1834    7.7819 N   0  0  0  0  0  0  0  0  0  0  0  0
   39.9376  -43.9215   10.1016 N   0  0  0  0  0  0  0  0  0  0  0  0
   40.7632  -45.0655    9.8004 C   0  0  0  0  0  0  0  0  0  0  0  0
   40.0597  -46.0978    9.0067 C   0  0  0  0  0  0  0  0  0  0  0  0
   40.7237  -46.7132    7.9766 C   0  0  0  0  0  0  0  0  0  0  0  0
   40.0658  -47.6871    7.2352 C   0  0  0  0  0  0  0  0  0  0  0  0
   38.8098  -48.0163    7.5221 N   0  0  0  0  0  0  0  0  0  0  0  0
   38.1593  -47.4119    8.5327 C   0  0  0  0  0  0  0  0  0  0  0  0
   38.7555  -46.4542    9.2882 C   0  0  0  0  0  0  0  0  0  0  0  0
  1  2  2  0  0  0  0
  2  3  1  0  0  0  0
  2 16  1  0  0  0  0
  3  4  1  0  0  0  0
  4  5  2  0  0  0  0
  5  6  1  0  0  0  0
  6  7  1  0  0  0  0
  7  8  1  0  0  0  0
  7 15  2  0  0  0  0
  8  9  1  0  0  0  0
  9 10  2  0  0  0  0
 10 11  1  0  0  0  0
 11 12  2  0  0  0  0
 12 13  1  0  0  0  0
 13 14  2  0  0  0  0
 14  9  1  0  0  0  0
 15  4  1  0  0  0  0
 16 17  1  0  0  0  0
 17 18  1  0  0  0  0
 18 19  2  0  0  0  0
 19 20  1  0  0  0  0
 20 21  2  0  0  0  0
 21 22  1  0  0  0  0
 22 23  2  0  0  0  0
 23 18  1  0  0  0  0
M  END
>  <CHROM.1>
10.56994593,-88.71315030,35.41287444,-94.63676521,-110.79670229,138.16301940
39.98806764,-41.60731499,7.34246279,3.07295359,-1.49442398,-2.05215443

>  <Name>
design_5

>  <RI>
0

>  <Rbt.Current_Directory>
/home/ziqiaoxu/icml18-jtnn/VAEdesign

>  <Rbt.Executable>
rbdock ($Id: //depot/dev/client3/rdock/2013.1/src/exe/rbdock.cxx#4 $)

>  <Rbt.Library>
libRbt.so (2013.1, Build901 2013/11/27)

>  <Rbt.Parameter_File>
/export/apps/rDock/src/rDock_2013.1_src//data/scripts/dock.prm

>  <Rbt.Receptor>
/home/ziqiaoxu/icml18-jtnn/VAEdesign/targets/RdRp-SARS-CoV-2/pocket_docking.prm

>  <SCORE>
-18.1508

>  <SCORE.INTER>
-18.4539

>  <SCORE.INTER.CONST>
1

>  <SCORE.INTER.POLAR>
-1.02417

>  <SCORE.INTER.REPUL>
0.0250964

>  <SCORE.INTER.ROT>
6

>  <SCORE.INTER.VDW>
-26.4972

>  <SCORE.INTER.norm>
-0.802343

>  <SCORE.INTRA>
0.30307

>  <SCORE.INTRA.DIHEDRAL>
0.0916838

>  <SCORE.INTRA.DIHEDRAL.0>
6.67191

>  <SCORE.INTRA.POLAR>
0

>  <SCORE.INTRA.POLAR.0>
0

>  <SCORE.INTRA.REPUL>
0

>  <SCORE.INTRA.REPUL.0>
0

>  <SCORE.INTRA.VDW>
0.257228

>  <SCORE.INTRA.VDW.0>
-2.59407

>  <SCORE.INTRA.norm>
0.013177

>  <SCORE.RESTR>
0

>  <SCORE.RESTR.CAVITY>
0

>  <SCORE.RESTR.norm>
0

>  <SCORE.SYSTEM>
0

>  <SCORE.SYSTEM.CONST>
0

>  <SCORE.SYSTEM.DIHEDRAL>
0

>  <SCORE.SYSTEM.norm>
0

>  <SCORE.heavy>
23

>  <SCORE.norm>
-0.789166

$$$$
design_13
 OpenBabel05252019093D

 24 26  0  0  0  0  0  0  0  0999 V2000
   39.1676  -48.7192    6.3344 C   0  0  0  0  0  0  0  0  0  0  0  0
   39.5638  -47.7870    7.4309 C   0  0  0  0  0  0  0  0  0  0  0  0
   38.7706  -47.5605    8.5240 C   0  0  0  0  0  0  0  0  0  0  0  0
   39.1128  -46.7315    9.5068 N   0  0  0  0  0  0  0  0  0  0  0  0
   40.3044  -46.0825    9.4184 C   0  0  0  0  0  0  0  0  0  0  0  0
   40.5955  -45.3000   10.3804 O   0  0  0  0  0  0  0  0  0  0  0  0
   41.1713  -46.2393    8.3657 C   0  0  0  0  0  0  0  0  0  0  0  0
   42.4394  -45.5510    8.2259 C   0  0  0  0  0  0  0  0  0  0  0  0
   42.7557  -44.7561    9.1834 O   0  0  0  0  0  0  0  0  0  0  0  0
   43.3416  -45.6624    7.1735 N   0  0  0  0  0  0  0  0  0  0  0  0
   44.5737  -44.8628    7.2428 C   0  0  0  0  0  0  0  0  0  0  0  0
   45.2724  -44.7873    5.9544 C   0  0  0  0  0  0  0  0  0  0  0  0
   45.8280  -43.6461    5.4313 C   0  0  0  0  0  0  0  0  0  0  0  0
   46.3705  -43.9852    4.2265 N   0  0  0  0  0  0  0  0  0  0  0  0
   46.1752  -45.2716    3.9876 N   0  0  0  0  0  0  0  0  0  0  0  0
   46.6228  -45.9557    2.7896 C   0  0  0  0  0  0  0  0  0  0  0  0
   45.5681  -45.9826    1.7575 C   0  0  0  0  0  0  0  0  0  0  0  0
   45.8848  -46.3717    0.4762 C   0  0  0  0  0  0  0  0  0  0  0  0
   44.9354  -46.4191   -0.5299 C   0  0  0  0  0  0  0  0  0  0  0  0
   43.6466  -46.0603   -0.2061 C   0  0  0  0  0  0  0  0  0  0  0  0
   43.2791  -45.6603    1.0752 C   0  0  0  0  0  0  0  0  0  0  0  0
   44.2703  -45.6313    2.0427 C   0  0  0  0  0  0  0  0  0  0  0  0
   45.5021  -45.7878    5.0356 C   0  0  0  0  0  0  0  0  0  0  0  0
   40.7580  -47.1306    7.3510 C   0  0  0  0  0  0  0  0  0  0  0  0
  1  2  1  0  0  0  0
  2  3  2  0  0  0  0
  3  4  1  0  0  0  0
  4  5  1  0  0  0  0
  5  6  2  0  0  0  0
  5  7  1  0  0  0  0
  7  8  1  0  0  0  0
  7 24  2  0  0  0  0
  8  9  2  0  0  0  0
  8 10  1  0  0  0  0
 10 11  1  0  0  0  0
 11 12  1  0  0  0  0
 12 13  1  0  0  0  0
 13 14  2  0  0  0  0
 14 15  1  0  0  0  0
 15 16  1  0  0  0  0
 15 23  1  0  0  0  0
 16 17  1  0  0  0  0
 17 18  2  0  0  0  0
 18 19  1  0  0  0  0
 19 20  2  0  0  0  0
 20 21  1  0  0  0  0
 21 22  2  0  0  0  0
 22 17  1  0  0  0  0
 23 12  2  0  0  0  0
 24  2  1  0  0  0  0
M  END
>  <CHROM.1>
0.99754680,-165.20051077,136.88243153,-93.26966814,168.35468523,43.13293209
-45.90629174,5.54937543,2.28093499,0.48289759,1.30854529

>  <Name>
design_13

>  <RI>
0

>  <Rbt.Current_Directory>
/home/ziqiaoxu/icml18-jtnn/VAEdesign

>  <Rbt.Executable>
rbdock ($Id: //depot/dev/client3/rdock/2013.1/src/exe/rbdock.cxx#4 $)

>  <Rbt.Library>
libRbt.so (2013.1, Build901 2013/11/27)

>  <Rbt.Parameter_File>
/export/apps/rDock/src/rDock_2013.1_src//data/scripts/dock.prm

>  <Rbt.Receptor>
/home/ziqiaoxu/icml18-jtnn/VAEdesign/targets/RdRp-SARS-CoV-2/pocket_docking.prm

>  <SCORE>
-18.9012

>  <SCORE.INTER>
-19.5073

>  <SCORE.INTER.CONST>
1

>  <SCORE.INTER.POLAR>
-1.0198

>  <SCORE.INTER.REPUL>
0.0114243

>  <SCORE.INTER.ROT>
5

>  <SCORE.INTER.VDW>
-26.4971

>  <SCORE.INTER.norm>
-0.812803

>  <SCORE.INTRA>
0.60606

>  <SCORE.INTRA.DIHEDRAL>
-0.531035

>  <SCORE.INTRA.DIHEDRAL.0>
6.19178

>  <SCORE.INTRA.POLAR>
0.0419526

>  <SCORE.INTRA.POLAR.0>
-0.0419526

>  <SCORE.INTRA.REPUL>
0

>  <SCORE.INTRA.REPUL.0>
0

>  <SCORE.INTRA.VDW>
0.728939

>  <SCORE.INTRA.VDW.0>
-1.70748

>  <SCORE.INTRA.norm>
0.0252525

>  <SCORE.RESTR>
0

>  <SCORE.RESTR.CAVITY>
0

>  <SCORE.RESTR.norm>
0

>  <SCORE.SYSTEM>
0

>  <SCORE.SYSTEM.CONST>
0

>  <SCORE.SYSTEM.DIHEDRAL>
0

>  <SCORE.SYSTEM.norm>
0

>  <SCORE.heavy>
24

>  <SCORE.norm>
-0.78755

$$$$
design_13
 OpenBabel05252019093D

 25 26  0  0  0  0  0  0  0  0999 V2000
   39.3002  -46.4517    9.1543 C   0  0  0  0  0  0  0  0  0  0  0  0
   40.6620  -46.0572    8.6521 C   0  0  0  0  0  0  0  0  0  0  0  0
   41.1784  -46.5892    7.4941 C   0  0  0  0  0  0  0  0  0  0  0  0
   42.4309  -46.2391    7.0138 C   0  0  0  0  0  0  0  0  0  0  0  0
   43.2045  -45.3218    7.7126 C   0  0  0  0  0  0  0  0  0  0  0  0
   44.5242  -44.9024    7.2770 C   0  0  0  0  0  0  0  0  0  0  0  0
   45.1939  -44.1634    8.0694 O   0  0  0  0  0  0  0  0  0  0  0  0
   45.0744  -45.2873    6.0177 N   0  0  0  0  0  0  0  0  0  0  0  0
   46.3716  -44.9101    5.5402 C   0  0  0  0  0  0  0  0  0  0  0  0
   46.2894  -44.5599    4.0942 C   0  0  0  0  0  0  0  0  0  0  0  0
   45.6785  -43.5289    3.7282 O   0  0  0  0  0  0  0  0  0  0  0  0
   46.8904  -45.3670    3.0884 N   0  0  0  0  0  0  0  0  0  0  0  0
   46.8014  -44.9774    1.7199 C   0  0  0  0  0  0  0  0  0  0  0  0
   45.6860  -45.5413    0.9423 C   0  0  0  0  0  0  0  0  0  0  0  0
   45.7834  -46.3666   -0.1490 C   0  0  0  0  0  0  0  0  0  0  0  0
   44.6533  -46.8409   -0.8342 C   0  0  0  0  0  0  0  0  0  0  0  0
   43.3939  -46.4720   -0.4057 C   0  0  0  0  0  0  0  0  0  0  0  0
   43.2919  -45.6424    0.6910 C   0  0  0  0  0  0  0  0  0  0  0  0
   44.3907  -45.1921    1.3428 C   0  0  0  0  0  0  0  0  0  0  0  0
   47.5514  -46.5788    3.5328 C   0  0  0  0  0  0  0  0  0  0  0  0
   47.0289  -47.8251    2.8629 C   0  0  0  0  0  0  0  0  0  0  0  0
   49.0582  -46.5368    3.3639 C   0  0  0  0  0  0  0  0  0  0  0  0
   42.6637  -44.8119    8.8582 C   0  0  0  0  0  0  0  0  0  0  0  0
   41.4254  -45.1525    9.3409 C   0  0  0  0  0  0  0  0  0  0  0  0
   40.8967  -44.5651   10.5872 C   0  0  0  0  0  0  0  0  0  0  0  0
  1  2  1  0  0  0  0
  2  3  2  0  0  0  0
  3  4  1  0  0  0  0
  4  5  2  0  0  0  0
  5  6  1  0  0  0  0
  5 23  1  0  0  0  0
  6  7  2  0  0  0  0
  6  8  1  0  0  0  0
  8  9  1  0  0  0  0
  9 10  1  0  0  0  0
 10 11  2  0  0  0  0
 10 12  1  0  0  0  0
 12 13  1  0  0  0  0
 12 20  1  0  0  0  0
 13 14  1  0  0  0  0
 14 15  2  0  0  0  0
 15 16  1  0  0  0  0
 16 17  2  0  0  0  0
 17 18  1  0  0  0  0
 18 19  2  0  0  0  0
 19 14  1  0  0  0  0
 20 21  1  0  0  0  0
 20 22  1  0  0  0  0
 23 24  2  0  0  0  0
 24 25  1  0  0  0  0
 24  2  1  0  0  0  0
M  END
>  <CHROM.1>
-172.92193271,-138.62257102,68.64161605,-93.47956600,-117.09879699,123.95498162
44.42448452,-45.58378030,4.81383146,2.10265274,0.14810556,1.40661212

>  <Name>
design_13

>  <RI>
0

>  <Rbt.Current_Directory>
/home/ziqiaoxu/icml18-jtnn/VAEdesign

>  <Rbt.Executable>
rbdock ($Id: //depot/dev/client3/rdock/2013.1/src/exe/rbdock.cxx#4 $)

>  <Rbt.Library>
libRbt.so (2013.1, Build901 2013/11/27)

>  <Rbt.Parameter_File>
/export/apps/rDock/src/rDock_2013.1_src//data/scripts/dock.prm

>  <Rbt.Receptor>
/home/ziqiaoxu/icml18-jtnn/VAEdesign/targets/RdRp-SARS-CoV-2/pocket_docking.prm

>  <SCORE>
-15.2508

>  <SCORE.INTER>
-15.0912

>  <SCORE.INTER.CONST>
1

>  <SCORE.INTER.POLAR>
0

>  <SCORE.INTER.REPUL>
0

>  <SCORE.INTER.ROT>
6

>  <SCORE.INTER.VDW>
-26.4912

>  <SCORE.INTER.norm>
-0.603649

>  <SCORE.INTRA>
-0.159585

>  <SCORE.INTRA.DIHEDRAL>
0.132864

>  <SCORE.INTRA.DIHEDRAL.0>
5.68826

>  <SCORE.INTRA.POLAR>
0

>  <SCORE.INTRA.POLAR.0>
0

>  <SCORE.INTRA.REPUL>
0

>  <SCORE.INTRA.REPUL.0>
0

>  <SCORE.INTRA.VDW>
-0.226017

>  <SCORE.INTRA.VDW.0>
-1.1901

>  <SCORE.INTRA.norm>
-0.0063834

>  <SCORE.RESTR>
0

>  <SCORE.RESTR.CAVITY>
0

>  <SCORE.RESTR.norm>
0

>  <SCORE.SYSTEM>
0

>  <SCORE.SYSTEM.CONST>
0

>  <SCORE.SYSTEM.DIHEDRAL>
0

>  <SCORE.SYSTEM.norm>
0

>  <SCORE.heavy>
25

>  <SCORE.norm>
-0.610032

$$$$
design_0
 OpenBabel05252019093D

 23 25  0  0  0  0  0  0  0  0999 V2000
   42.4368  -45.1723    7.9906 C   0  0  0  0  0  0  0  0  0  0  0  0
   41.2405  -46.0407    8.0712 C   0  0  0  0  0  0  0  0  0  0  0  0
   40.9669  -47.0018    7.1172 C   0  0  0  0  0  0  0  0  0  0  0  0
   39.8450  -47.7786    7.2645 C   0  0  0  0  0  0  0  0  0  0  0  0
   39.0172  -47.5993    8.3392 C   0  0  0  0  0  0  0  0  0  0  0  0
   39.3069  -46.6334    9.2853 C   0  0  0  0  0  0  0  0  0  0  0  0
   40.4060  -45.8359    9.1867 C   0  0  0  0  0  0  0  0  0  0  0  0
   40.8513  -44.6161   10.3330 S   0  0  0  0  0  0  0  0  0  0  0  0
   39.9022  -43.1344   10.4516 C   0  0  0  0  0  0  0  0  0  0  0  0
   39.9278  -42.1534    9.4087 C   0  0  0  0  0  0  0  0  0  0  0  0
   40.2514  -42.6210    8.2282 O   0  0  0  0  0  0  0  0  0  0  0  0
   39.6752  -40.7924    9.4231 N   0  0  0  0  0  0  0  0  0  0  0  0
   39.7874  -39.9800    8.2233 C   0  0  0  0  0  0  0  0  0  0  0  0
   39.2450  -40.5091    7.0830 C   0  0  0  0  0  0  0  0  0  0  0  0
   39.2836  -39.7651    5.9022 C   0  0  0  0  0  0  0  0  0  0  0  0
   39.8759  -38.5017    5.9102 C   0  0  0  0  0  0  0  0  0  0  0  0
   39.8690  -37.7944    4.6787 N   0  0  0  0  0  0  0  0  0  0  0  0
   39.5924  -38.3554    3.4918 C   0  0  0  0  0  0  0  0  0  0  0  0
   39.6707  -37.4123    2.5526 N   0  0  0  0  0  0  0  0  0  0  0  0
   39.9936  -36.2844    3.1463 N   0  0  0  0  0  0  0  0  0  0  0  0
   40.1125  -36.5204    4.4388 N   0  0  0  0  0  0  0  0  0  0  0  0
   40.4095  -38.0009    7.0643 C   0  0  0  0  0  0  0  0  0  0  0  0
   40.3561  -38.7574    8.2152 C   0  0  0  0  0  0  0  0  0  0  0  0
  1  2  1  0  0  0  0
  2  3  2  0  0  0  0
  3  4  1  0  0  0  0
  4  5  2  0  0  0  0
  5  6  1  0  0  0  0
  6  7  2  0  0  0  0
  7  8  1  0  0  0  0
  7  2  1  0  0  0  0
  8  9  1  0  0  0  0
  9 10  1  0  0  0  0
 10 11  2  0  0  0  0
 10 12  1  0  0  0  0
 12 13  1  0  0  0  0
 13 14  2  0  0  0  0
 14 15  1  0  0  0  0
 15 16  2  0  0  0  0
 16 17  1  0  0  0  0
 16 22  1  0  0  0  0
 17 18  1  0  0  0  0
 18 19  2  0  0  0  0
 19 20  1  0  0  0  0
 20 21  2  0  0  0  0
 21 17  1  0  0  0  0
 22 23  2  0  0  0  0
 23 13  1  0  0  0  0
M  END
>  <CHROM.1>
109.77499668,-70.13672777,24.48586833,44.00316088,-14.22606440,40.14007834
-41.91483854,7.37489841,0.11540584,1.51338241,-2.15461250

>  <Name>
design_0

>  <RI>
0

>  <Rbt.Current_Directory>
/home/ziqiaoxu/icml18-jtnn/VAEdesign

>  <Rbt.Executable>
rbdock ($Id: //depot/dev/client3/rdock/2013.1/src/exe/rbdock.cxx#4 $)

>  <Rbt.Library>
libRbt.so (2013.1, Build901 2013/11/27)

>  <Rbt.Parameter_File>
/export/apps/rDock/src/rDock_2013.1_src//data/scripts/dock.prm

>  <Rbt.Receptor>
/home/ziqiaoxu/icml18-jtnn/VAEdesign/targets/RdRp-SARS-CoV-2/pocket_docking.prm

>  <SCORE>
-22.4133

>  <SCORE.INTER>
-19.3099

>  <SCORE.INTER.CONST>
1

>  <SCORE.INTER.POLAR>
-0.947452

>  <SCORE.INTER.REPUL>
0

>  <SCORE.INTER.ROT>
5

>  <SCORE.INTER.VDW>
-26.4886

>  <SCORE.INTER.norm>
-0.839562

>  <SCORE.INTRA>
-3.10335

>  <SCORE.INTRA.DIHEDRAL>
-10.9483

>  <SCORE.INTRA.DIHEDRAL.0>
21.1973

>  <SCORE.INTRA.POLAR>
0

>  <SCORE.INTRA.POLAR.0>
0

>  <SCORE.INTRA.REPUL>
0

>  <SCORE.INTRA.REPUL.0>
0

>  <SCORE.INTRA.VDW>
2.37081

>  <SCORE.INTRA.VDW.0>
-2.11605

>  <SCORE.INTRA.norm>
-0.134928

>  <SCORE.RESTR>
0

>  <SCORE.RESTR.CAVITY>
0

>  <SCORE.RESTR.norm>
0

>  <SCORE.SYSTEM>
0

>  <SCORE.SYSTEM.CONST>
0

>  <SCORE.SYSTEM.DIHEDRAL>
0

>  <SCORE.SYSTEM.norm>
0

>  <SCORE.heavy>
23

>  <SCORE.norm>
-0.97449

$$$$
design_12
 OpenBabel05252019093D

 23 25  0  0  0  0  0  0  0  0999 V2000
   46.9850  -44.6623    5.2195 C   0  0  0  0  0  0  0  0  0  0  0  0
   45.8397  -44.7322    6.1573 C   0  0  0  0  0  0  0  0  0  0  0  0
   45.9093  -44.0198    7.3239 C   0  0  0  0  0  0  0  0  0  0  0  0
   44.8507  -44.0800    8.1980 C   0  0  0  0  0  0  0  0  0  0  0  0
   43.7253  -44.8254    7.9503 C   0  0  0  0  0  0  0  0  0  0  0  0
   42.6065  -44.8701    8.9061 C   0  0  0  0  0  0  0  0  0  0  0  0
   42.6481  -44.1380   10.0733 C   0  0  0  0  0  0  0  0  0  0  0  0
   41.1485  -44.5479   10.7792 S   0  0  0  0  0  0  0  0  0  0  0  0
   40.5674  -45.6012    9.5798 C   0  0  0  0  0  0  0  0  0  0  0  0
   39.3738  -46.3633    9.4282 N   0  0  0  0  0  0  0  0  0  0  0  0
   39.1271  -47.2872    8.4161 C   0  0  0  0  0  0  0  0  0  0  0  0
   38.0160  -47.9056    8.4846 O   0  0  0  0  0  0  0  0  0  0  0  0
   40.0311  -47.5778    7.3239 C   0  0  0  0  0  0  0  0  0  0  0  0
   39.4971  -47.7607    5.9574 C   0  0  0  0  0  0  0  0  0  0  0  0
   39.1044  -46.5584    5.2100 C   0  0  0  0  0  0  0  0  0  0  0  0
   37.8779  -45.8963    5.4447 N   0  0  0  0  0  0  0  0  0  0  0  0
   36.6132  -46.3953    5.3163 C   0  0  0  0  0  0  0  0  0  0  0  0
   35.7269  -45.4666    5.6682 N   0  0  0  0  0  0  0  0  0  0  0  0
   36.3984  -44.3622    6.0266 C   0  0  0  0  0  0  0  0  0  0  0  0
   37.6998  -44.6449    5.8835 N   0  0  0  0  0  0  0  0  0  0  0  0
   41.5548  -45.5868    8.6944 N   0  0  0  0  0  0  0  0  0  0  0  0
   43.6830  -45.5283    6.7750 C   0  0  0  0  0  0  0  0  0  0  0  0
   44.7386  -45.4890    5.8673 C   0  0  0  0  0  0  0  0  0  0  0  0
  1  2  1  0  0  0  0
  2  3  2  0  0  0  0
  3  4  1  0  0  0  0
  4  5  2  0  0  0  0
  5  6  1  0  0  0  0
  5 22  1  0  0  0  0
  6  7  2  0  0  0  0
  7  8  1  0  0  0  0
  8  9  1  0  0  0  0
  9 10  1  0  0  0  0
  9 21  2  0  0  0  0
 10 11  1  0  0  0  0
 11 12  2  0  0  0  0
 11 13  1  0  0  0  0
 13 14  1  0  0  0  0
 14 15  1  0  0  0  0
 15 16  1  0  0  0  0
 16 17  1  0  0  0  0
 17 18  2  0  0  0  0
 18 19  1  0  0  0  0
 19 20  2  0  0  0  0
 20 16  1  0  0  0  0
 21  6  1  0  0  0  0
 22 23  2  0  0  0  0
 23  2  1  0  0  0  0
M  END
>  <CHROM.1>
1.27790499,-173.28534755,-138.57073583,76.54930787,-78.84153993,-60.24277439
40.96664442,-45.55373143,7.51179328,-0.12985149,-0.18860311,-1.67391366

>  <Name>
design_12

>  <RI>
0

>  <Rbt.Current_Directory>
/home/ziqiaoxu/icml18-jtnn/VAEdesign

>  <Rbt.Executable>
rbdock ($Id: //depot/dev/client3/rdock/2013.1/src/exe/rbdock.cxx#4 $)

>  <Rbt.Library>
libRbt.so (2013.1, Build901 2013/11/27)

>  <Rbt.Parameter_File>
/export/apps/rDock/src/rDock_2013.1_src//data/scripts/dock.prm

>  <Rbt.Receptor>
/home/ziqiaoxu/icml18-jtnn/VAEdesign/targets/RdRp-SARS-CoV-2/pocket_docking.prm

>  <SCORE>
-17.0508

>  <SCORE.INTER>
-18.5238

>  <SCORE.INTER.CONST>
1

>  <SCORE.INTER.POLAR>
-1.0112

>  <SCORE.INTER.REPUL>
0

>  <SCORE.INTER.ROT>
6

>  <SCORE.INTER.VDW>
-26.4857

>  <SCORE.INTER.norm>
-0.805381

>  <SCORE.INTRA>
1.473

>  <SCORE.INTRA.DIHEDRAL>
3.04434

>  <SCORE.INTRA.DIHEDRAL.0>
4.44955

>  <SCORE.INTRA.POLAR>
0

>  <SCORE.INTRA.POLAR.0>
0

>  <SCORE.INTRA.REPUL>
0

>  <SCORE.INTRA.REPUL.0>
0

>  <SCORE.INTRA.VDW>
-0.0491647

>  <SCORE.INTRA.VDW.0>
-1.59722

>  <SCORE.INTRA.norm>
0.0640437

>  <SCORE.RESTR>
0

>  <SCORE.RESTR.CAVITY>
0

>  <SCORE.RESTR.norm>
0

>  <SCORE.SYSTEM>
0

>  <SCORE.SYSTEM.CONST>
0

>  <SCORE.SYSTEM.DIHEDRAL>
0

>  <SCORE.SYSTEM.norm>
0

>  <SCORE.heavy>
23

>  <SCORE.norm>
-0.741337

$$$$
design_11
 OpenBabel05252019093D

 24 26  0  0  0  0  0  0  0  0999 V2000
   44.0801  -44.2219    8.8166 O   0  0  0  0  0  0  0  0  0  0  0  0
   43.8525  -44.7387    7.6670 C   0  0  0  0  0  0  0  0  0  0  0  0
   44.9632  -44.4495    6.7174 C   0  0  0  0  0  0  0  0  0  0  0  0
   45.3968  -45.5207    5.8966 N   0  0  0  0  0  0  0  0  0  0  0  0
   45.6500  -45.2250    4.5091 C   0  0  0  0  0  0  0  0  0  0  0  0
   45.4692  -44.0370    4.1209 O   0  0  0  0  0  0  0  0  0  0  0  0
   46.0802  -46.2557    3.6630 N   0  0  0  0  0  0  0  0  0  0  0  0
   46.3436  -45.9897    2.2750 C   0  0  0  0  0  0  0  0  0  0  0  0
   45.0613  -45.8816    1.5302 C   0  0  0  0  0  0  0  0  0  0  0  0
   44.8665  -46.4193    0.2702 C   0  0  0  0  0  0  0  0  0  0  0  0
   43.5704  -46.1260   -0.1003 C   0  0  0  0  0  0  0  0  0  0  0  0
   43.0484  -45.4227    0.9620 C   0  0  0  0  0  0  0  0  0  0  0  0
   43.9595  -45.3069    1.8888 O   0  0  0  0  0  0  0  0  0  0  0  0
   42.7067  -45.4840    7.3332 N   0  0  0  0  0  0  0  0  0  0  0  0
   41.6304  -45.7931    8.1685 C   0  0  0  0  0  0  0  0  0  0  0  0
   41.4458  -45.2565    9.4355 C   0  0  0  0  0  0  0  0  0  0  0  0
   40.3805  -45.5629   10.2614 C   0  0  0  0  0  0  0  0  0  0  0  0
   39.4425  -46.4450    9.8216 C   0  0  0  0  0  0  0  0  0  0  0  0
   39.6042  -47.0007    8.5483 C   0  0  0  0  0  0  0  0  0  0  0  0
   38.6195  -47.9058    8.1266 C   0  0  0  0  0  0  0  0  0  0  0  0
   38.7136  -48.4902    6.8879 C   0  0  0  0  0  0  0  0  0  0  0  0
   39.7586  -48.1991    6.0599 C   0  0  0  0  0  0  0  0  0  0  0  0
   40.7442  -47.3044    6.4607 C   0  0  0  0  0  0  0  0  0  0  0  0
   40.6545  -46.7111    7.7106 C   0  0  0  0  0  0  0  0  0  0  0  0
  1  2  2  0  0  0  0
  2  3  1  0  0  0  0
  2 14  1  0  0  0  0
  3  4  1  0  0  0  0
  4  5  1  0  0  0  0
  5  6  2  0  0  0  0
  5  7  1  0  0  0  0
  7  8  1  0  0  0  0
  8  9  1  0  0  0  0
  9 10  2  0  0  0  0
 10 11  1  0  0  0  0
 11 12  2  0  0  0  0
 12 13  1  0  0  0  0
 13  9  1  0  0  0  0
 14 15  1  0  0  0  0
 15 16  2  0  0  0  0
 16 17  1  0  0  0  0
 17 18  2  0  0  0  0
 18 19  1  0  0  0  0
 19 20  2  0  0  0  0
 20 21  1  0  0  0  0
 21 22  2  0  0  0  0
 22 23  1  0  0  0  0
 23 24  2  0  0  0  0
 24 15  1  0  0  0  0
 24 19  1  0  0  0  0
M  END
>  <CHROM.1>
136.87093545,136.79635255,-76.74326515,-139.21650268,8.71235746,42.85592257
-45.94871296,5.66615381,-2.27642625,-0.47451994,-1.80468896

>  <Name>
design_11

>  <RI>
0

>  <Rbt.Current_Directory>
/home/ziqiaoxu/icml18-jtnn/VAEdesign

>  <Rbt.Executable>
rbdock ($Id: //depot/dev/client3/rdock/2013.1/src/exe/rbdock.cxx#4 $)

>  <Rbt.Library>
libRbt.so (2013.1, Build901 2013/11/27)

>  <Rbt.Parameter_File>
/export/apps/rDock/src/rDock_2013.1_src//data/scripts/dock.prm

>  <Rbt.Receptor>
/home/ziqiaoxu/icml18-jtnn/VAEdesign/targets/RdRp-SARS-CoV-2/pocket_docking.prm

>  <SCORE>
-19.9706

>  <SCORE.INTER>
-19.1055

>  <SCORE.INTER.CONST>
1

>  <SCORE.INTER.POLAR>
-0.888296

>  <SCORE.INTER.REPUL>
0

>  <SCORE.INTER.ROT>
5

>  <SCORE.INTER.VDW>
-26.4853

>  <SCORE.INTER.norm>
-0.796062

>  <SCORE.INTRA>
-0.865084

>  <SCORE.INTRA.DIHEDRAL>
-0.690572

>  <SCORE.INTRA.DIHEDRAL.0>
5.4722

>  <SCORE.INTRA.POLAR>
0

>  <SCORE.INTRA.POLAR.0>
0

>  <SCORE.INTRA.REPUL>
0

>  <SCORE.INTRA.REPUL.0>
0

>  <SCORE.INTRA.VDW>
-0.519798

>  <SCORE.INTRA.VDW.0>
-1.2358

>  <SCORE.INTRA.norm>
-0.0360452

>  <SCORE.RESTR>
0

>  <SCORE.RESTR.CAVITY>
0

>  <SCORE.RESTR.norm>
0

>  <SCORE.SYSTEM>
0

>  <SCORE.SYSTEM.CONST>
0

>  <SCORE.SYSTEM.DIHEDRAL>
0

>  <SCORE.SYSTEM.norm>
0

>  <SCORE.heavy>
24

>  <SCORE.norm>
-0.832107

$$$$
design_2
 OpenBabel05252019093D

 25 27  0  0  0  0  0  0  0  0999 V2000
   44.4462  -45.4855   -0.1921 C   0  0  0  0  0  0  0  0  0  0  0  0
   45.1872  -46.6899   -0.1847 O   0  0  0  0  0  0  0  0  0  0  0  0
   46.1708  -46.8253    0.8031 C   0  0  0  0  0  0  0  0  0  0  0  0
   47.3933  -47.3935    0.5044 C   0  0  0  0  0  0  0  0  0  0  0  0
   48.3540  -47.5252    1.4722 C   0  0  0  0  0  0  0  0  0  0  0  0
   48.1102  -47.0861    2.7770 C   0  0  0  0  0  0  0  0  0  0  0  0
   46.9136  -46.5185    3.1116 C   0  0  0  0  0  0  0  0  0  0  0  0
   46.6470  -46.0549    4.4080 N   0  0  0  0  0  0  0  0  0  0  0  0
   45.4526  -45.5773    4.9580 C   0  0  0  0  0  0  0  0  0  0  0  0
   44.3978  -45.5015    4.3204 O   0  0  0  0  0  0  0  0  0  0  0  0
   45.4264  -45.1309    6.3851 C   0  0  0  0  0  0  0  0  0  0  0  0
   44.3185  -44.1365    6.5952 C   0  0  0  0  0  0  0  0  0  0  0  0
   43.1343  -44.8232    7.0234 N   0  0  0  0  0  0  0  0  0  0  0  0
   42.7403  -44.8973    8.3967 C   0  0  0  0  0  0  0  0  0  0  0  0
   43.4778  -44.3307    9.2379 O   0  0  0  0  0  0  0  0  0  0  0  0
   41.5270  -45.6069    8.7872 C   0  0  0  0  0  0  0  0  0  0  0  0
   40.8726  -45.5302    9.9741 N   0  0  0  0  0  0  0  0  0  0  0  0
   39.8142  -46.3147    9.9630 N   0  0  0  0  0  0  0  0  0  0  0  0
   39.7139  -46.9489    8.7726 C   0  0  0  0  0  0  0  0  0  0  0  0
   38.7990  -47.8562    8.2767 C   0  0  0  0  0  0  0  0  0  0  0  0
   38.9653  -48.3335    7.0029 C   0  0  0  0  0  0  0  0  0  0  0  0
   40.0285  -47.9028    6.2544 C   0  0  0  0  0  0  0  0  0  0  0  0
   40.9285  -47.0027    6.7588 C   0  0  0  0  0  0  0  0  0  0  0  0
   40.8014  -46.4986    8.0281 C   0  0  0  0  0  0  0  0  0  0  0  0
   45.9697  -46.4085    2.0873 C   0  0  0  0  0  0  0  0  0  0  0  0
  1  2  1  0  0  0  0
  2  3  1  0  0  0  0
  3  4  2  0  0  0  0
  4  5  1  0  0  0  0
  5  6  2  0  0  0  0
  6  7  1  0  0  0  0
  7  8  1  0  0  0  0
  7 25  2  0  0  0  0
  8  9  1  0  0  0  0
  9 10  2  0  0  0  0
  9 11  1  0  0  0  0
 11 12  1  0  0  0  0
 12 13  1  0  0  0  0
 13 14  1  0  0  0  0
 14 15  2  0  0  0  0
 14 16  1  0  0  0  0
 16 17  2  0  0  0  0
 17 18  1  0  0  0  0
 18 19  1  0  0  0  0
 19 20  2  0  0  0  0
 20 21  1  0  0  0  0
 21 22  2  0  0  0  0
 22 23  1  0  0  0  0
 23 24  2  0  0  0  0
 24 16  1  0  0  0  0
 24 19  1  0  0  0  0
 25  3  1  0  0  0  0
M  END
>  <CHROM.1>
-139.38712310,-172.86393047,154.96438906,92.70998288,98.91897477,-164.71647320
43.60598758,-46.21440403,5.39937825,0.80295107,-0.37732806,-1.94554568

>  <Name>
design_2

>  <RI>
0

>  <Rbt.Current_Directory>
/home/ziqiaoxu/icml18-jtnn/VAEdesign

>  <Rbt.Executable>
rbdock ($Id: //depot/dev/client3/rdock/2013.1/src/exe/rbdock.cxx#4 $)

>  <Rbt.Library>
libRbt.so (2013.1, Build901 2013/11/27)

>  <Rbt.Parameter_File>
/export/apps/rDock/src/rDock_2013.1_src//data/scripts/dock.prm

>  <Rbt.Receptor>
/home/ziqiaoxu/icml18-jtnn/VAEdesign/targets/RdRp-SARS-CoV-2/pocket_docking.prm

>  <SCORE>
-18.6188

>  <SCORE.INTER>
-19.0516

>  <SCORE.INTER.CONST>
1

>  <SCORE.INTER.POLAR>
-1.16676

>  <SCORE.INTER.REPUL>
0

>  <SCORE.INTER.ROT>
6

>  <SCORE.INTER.VDW>
-26.4846

>  <SCORE.INTER.norm>
-0.762063

>  <SCORE.INTRA>
0.432822

>  <SCORE.INTRA.DIHEDRAL>
6.26758

>  <SCORE.INTRA.DIHEDRAL.0>
2.84071

>  <SCORE.INTRA.POLAR>
0

>  <SCORE.INTRA.POLAR.0>
0

>  <SCORE.INTRA.REPUL>
0

>  <SCORE.INTRA.REPUL.0>
0

>  <SCORE.INTRA.VDW>
-2.70097

>  <SCORE.INTRA.VDW.0>
4.06002

>  <SCORE.INTRA.norm>
0.0173129

>  <SCORE.RESTR>
0

>  <SCORE.RESTR.CAVITY>
0

>  <SCORE.RESTR.norm>
0

>  <SCORE.SYSTEM>
0

>  <SCORE.SYSTEM.CONST>
0

>  <SCORE.SYSTEM.DIHEDRAL>
0

>  <SCORE.SYSTEM.norm>
0

>  <SCORE.heavy>
25

>  <SCORE.norm>
-0.74475

$$$$
design_4
 OpenBabel05252019093D

 24 27  0  0  0  0  0  0  0  0999 V2000
   41.2283  -44.4519   11.0915 C   0  0  0  0  0  0  0  0  0  0  0  0
   40.8457  -45.3413    9.9697 C   0  0  0  0  0  0  0  0  0  0  0  0
   39.6976  -46.0771    9.9546 N   0  0  0  0  0  0  0  0  0  0  0  0
   39.6384  -46.7899    8.8267 C   0  0  0  0  0  0  0  0  0  0  0  0
   38.6949  -47.6781    8.3369 C   0  0  0  0  0  0  0  0  0  0  0  0
   38.8959  -48.2787    7.1163 C   0  0  0  0  0  0  0  0  0  0  0  0
   40.0126  -48.0136    6.3769 C   0  0  0  0  0  0  0  0  0  0  0  0
   40.9643  -47.1091    6.8857 C   0  0  0  0  0  0  0  0  0  0  0  0
   40.7818  -46.4997    8.1022 C   0  0  0  0  0  0  0  0  0  0  0  0
   41.5632  -45.5766    8.8168 C   0  0  0  0  0  0  0  0  0  0  0  0
   42.8194  -45.0224    8.3483 C   0  0  0  0  0  0  0  0  0  0  0  0
   43.2341  -43.9419    8.8966 O   0  0  0  0  0  0  0  0  0  0  0  0
   43.6477  -45.5356    7.3550 N   0  0  0  0  0  0  0  0  0  0  0  0
   44.8986  -44.9285    6.9381 C   0  0  0  0  0  0  0  0  0  0  0  0
   44.8787  -44.4343    5.5347 C   0  0  0  0  0  0  0  0  0  0  0  0
   45.7668  -45.2536    4.6507 C   0  0  0  0  0  0  0  0  0  0  0  0
   45.3359  -45.8177    3.5110 N   0  0  0  0  0  0  0  0  0  0  0  0
   46.4105  -46.4787    2.9833 C   0  0  0  0  0  0  0  0  0  0  0  0
   46.5678  -47.2343    1.8322 C   0  0  0  0  0  0  0  0  0  0  0  0
   47.7690  -47.8161    1.4986 C   0  0  0  0  0  0  0  0  0  0  0  0
   48.8343  -47.6247    2.3558 C   0  0  0  0  0  0  0  0  0  0  0  0
   48.6791  -46.8683    3.5093 C   0  0  0  0  0  0  0  0  0  0  0  0
   47.4655  -46.2883    3.8336 C   0  0  0  0  0  0  0  0  0  0  0  0
   47.0438  -45.5231    4.8651 N   0  0  0  0  0  0  0  0  0  0  0  0
  1  2  1  0  0  0  0
  2  3  1  0  0  0  0
  3  4  1  0  0  0  0
  4  5  2  0  0  0  0
  5  6  1  0  0  0  0
  6  7  2  0  0  0  0
  7  8  1  0  0  0  0
  8  9  2  0  0  0  0
  9 10  1  0  0  0  0
  9  4  1  0  0  0  0
 10 11  1  0  0  0  0
 10  2  2  0  0  0  0
 11 12  2  0  0  0  0
 11 13  1  0  0  0  0
 13 14  1  0  0  0  0
 14 15  1  0  0  0  0
 15 16  1  0  0  0  0
 16 17  2  0  0  0  0
 17 18  1  0  0  0  0
 18 19  2  0  0  0  0
 19 20  1  0  0  0  0
 20 21  2  0  0  0  0
 21 22  1  0  0  0  0
 22 23  2  0  0  0  0
 23 24  1  0  0  0  0
 23 18  1  0  0  0  0
 24 16  1  0  0  0  0
M  END
>  <CHROM.1>
-17.35461290,-114.84691996,-110.99604644,126.63029801,43.57269186,-46.14843962
6.36909021,-2.57392665,-0.43257606,-2.22581785

>  <Name>
design_4

>  <RI>
0

>  <Rbt.Current_Directory>
/home/ziqiaoxu/icml18-jtnn/VAEdesign

>  <Rbt.Executable>
rbdock ($Id: //depot/dev/client3/rdock/2013.1/src/exe/rbdock.cxx#4 $)

>  <Rbt.Library>
libRbt.so (2013.1, Build901 2013/11/27)

>  <Rbt.Parameter_File>
/export/apps/rDock/src/rDock_2013.1_src//data/scripts/dock.prm

>  <Rbt.Receptor>
/home/ziqiaoxu/icml18-jtnn/VAEdesign/targets/RdRp-SARS-CoV-2/pocket_docking.prm

>  <SCORE>
-18.9336

>  <SCORE.INTER>
-21.17

>  <SCORE.INTER.CONST>
1

>  <SCORE.INTER.POLAR>
-1.2037

>  <SCORE.INTER.REPUL>
0

>  <SCORE.INTER.ROT>
4

>  <SCORE.INTER.VDW>
-26.4774

>  <SCORE.INTER.norm>
-0.882084

>  <SCORE.INTRA>
2.23645

>  <SCORE.INTRA.DIHEDRAL>
5.71228

>  <SCORE.INTRA.DIHEDRAL.0>
3.19039

>  <SCORE.INTRA.POLAR>
0

>  <SCORE.INTRA.POLAR.0>
0

>  <SCORE.INTRA.REPUL>
0

>  <SCORE.INTRA.REPUL.0>
0

>  <SCORE.INTRA.VDW>
-0.619692

>  <SCORE.INTRA.VDW.0>
-0.66296

>  <SCORE.INTRA.norm>
0.0931852

>  <SCORE.RESTR>
0

>  <SCORE.RESTR.CAVITY>
0

>  <SCORE.RESTR.norm>
0

>  <SCORE.SYSTEM>
0

>  <SCORE.SYSTEM.CONST>
0

>  <SCORE.SYSTEM.DIHEDRAL>
0

>  <SCORE.SYSTEM.norm>
0

>  <SCORE.heavy>
24

>  <SCORE.norm>
-0.788899

$$$$
design_12
 OpenBabel05252019093D

 26 28  0  0  0  0  0  0  0  0999 V2000
   40.0157  -46.1392   10.5011 N   0  0  0  0  0  0  0  0  0  0  0  0
   40.4868  -45.3924    9.4153 C   0  0  0  0  0  0  0  0  0  0  0  0
   40.3562  -44.1454    9.4099 O   0  0  0  0  0  0  0  0  0  0  0  0
   41.1455  -46.0696    8.2588 C   0  0  0  0  0  0  0  0  0  0  0  0
   40.2685  -47.0639    7.6089 C   0  0  0  0  0  0  0  0  0  0  0  0
   39.4647  -47.8732    8.4052 C   0  0  0  0  0  0  0  0  0  0  0  0
   38.6505  -48.8104    7.8098 C   0  0  0  0  0  0  0  0  0  0  0  0
   38.6350  -48.9412    6.4499 C   0  0  0  0  0  0  0  0  0  0  0  0
   39.4596  -48.1066    5.6820 C   0  0  0  0  0  0  0  0  0  0  0  0
   40.2836  -47.1634    6.2183 C   0  0  0  0  0  0  0  0  0  0  0  0
   41.1158  -46.3016    5.5030 N   0  0  0  0  0  0  0  0  0  0  0  0
   40.7861  -45.6855    4.2743 C   0  0  0  0  0  0  0  0  0  0  0  0
   39.7207  -45.8036    3.6335 O   0  0  0  0  0  0  0  0  0  0  0  0
   41.8008  -44.7647    3.6093 C   0  0  0  0  0  0  0  0  0  0  0  0
   41.2949  -44.2790    2.2871 C   0  0  0  0  0  0  0  0  0  0  0  0
   42.4235  -43.9910    1.3895 C   0  0  0  0  0  0  0  0  0  0  0  0
   43.1042  -44.9489    0.9441 O   0  0  0  0  0  0  0  0  0  0  0  0
   42.7610  -42.6013    1.0109 C   0  0  0  0  0  0  0  0  0  0  0  0
   42.0166  -41.5306    1.4500 C   0  0  0  0  0  0  0  0  0  0  0  0
   42.3672  -40.2312    1.0699 C   0  0  0  0  0  0  0  0  0  0  0  0
   43.4495  -39.9760    0.2573 C   0  0  0  0  0  0  0  0  0  0  0  0
   44.1879  -41.0515   -0.1773 C   0  0  0  0  0  0  0  0  0  0  0  0
   43.8419  -42.3472    0.1995 C   0  0  0  0  0  0  0  0  0  0  0  0
   45.2787  -40.5218   -1.0289 C   0  0  0  0  0  0  0  0  0  0  0  0
   45.4995  -39.1519   -0.4275 C   0  0  0  0  0  0  0  0  0  0  0  0
   44.0347  -38.7079   -0.2861 C   0  0  0  0  0  0  0  0  0  0  0  0
  1  2  1  0  0  0  0
  2  3  2  0  0  0  0
  2  4  1  0  0  0  0
  4  5  1  0  0  0  0
  5  6  2  0  0  0  0
  6  7  1  0  0  0  0
  7  8  2  0  0  0  0
  8  9  1  0  0  0  0
  9 10  2  0  0  0  0
 10 11  1  0  0  0  0
 10  5  1  0  0  0  0
 11 12  1  0  0  0  0
 12 13  2  0  0  0  0
 12 14  1  0  0  0  0
 14 15  1  0  0  0  0
 15 16  1  0  0  0  0
 16 17  2  0  0  0  0
 16 18  1  0  0  0  0
 18 19  2  0  0  0  0
 19 20  1  0  0  0  0
 20 21  2  0  0  0  0
 21 22  1  0  0  0  0
 22 23  2  0  0  0  0
 22 24  1  0  0  0  0
 23 18  1  0  0  0  0
 24 25  1  0  0  0  0
 25 26  1  0  0  0  0
 26 21  1  0  0  0  0
M  END
>  <CHROM.1>
58.74874562,-39.92326835,-141.13360591,176.71210736,-151.86222088,69.85808208
-1.79655115,41.62497597,-44.30651645,4.03746382,-2.65507498,-1.13305605,-1.94493310

>  <Name>
design_12

>  <RI>
0

>  <Rbt.Current_Directory>
/home/ziqiaoxu/icml18-jtnn/VAEdesign

>  <Rbt.Executable>
rbdock ($Id: //depot/dev/client3/rdock/2013.1/src/exe/rbdock.cxx#4 $)

>  <Rbt.Library>
libRbt.so (2013.1, Build901 2013/11/27)

>  <Rbt.Parameter_File>
/export/apps/rDock/src/rDock_2013.1_src//data/scripts/dock.prm

>  <Rbt.Receptor>
/home/ziqiaoxu/icml18-jtnn/VAEdesign/targets/RdRp-SARS-CoV-2/pocket_docking.prm

>  <SCORE>
-19.3153

>  <SCORE.INTER>
-21.6138

>  <SCORE.INTER.CONST>
1

>  <SCORE.INTER.POLAR>
-2.30732

>  <SCORE.INTER.REPUL>
0.0615833

>  <SCORE.INTER.ROT>
7

>  <SCORE.INTER.VDW>
-26.4768

>  <SCORE.INTER.norm>
-0.831298

>  <SCORE.INTRA>
2.29845

>  <SCORE.INTRA.DIHEDRAL>
8.87542

>  <SCORE.INTRA.DIHEDRAL.0>
4.25922

>  <SCORE.INTRA.POLAR>
0

>  <SCORE.INTRA.POLAR.0>
0

>  <SCORE.INTRA.REPUL>
0

>  <SCORE.INTRA.REPUL.0>
0

>  <SCORE.INTRA.VDW>
-2.13926

>  <SCORE.INTRA.VDW.0>
3.79652

>  <SCORE.INTRA.norm>
0.088402

>  <SCORE.RESTR>
0

>  <SCORE.RESTR.CAVITY>
0

>  <SCORE.RESTR.norm>
0

>  <SCORE.SYSTEM>
0

>  <SCORE.SYSTEM.CONST>
0

>  <SCORE.SYSTEM.DIHEDRAL>
0

>  <SCORE.SYSTEM.norm>
0

>  <SCORE.heavy>
26

>  <SCORE.norm>
-0.742896

$$$$
design_6
 OpenBabel05252019093D

 24 26  0  0  0  0  0  0  0  0999 V2000
   38.9312  -49.0037    6.5017 C   0  0  0  0  0  0  0  0  0  0  0  0
   39.6957  -48.0292    7.2870 C   0  0  0  0  0  0  0  0  0  0  0  0
   39.4341  -47.5880    8.5243 N   0  0  0  0  0  0  0  0  0  0  0  0
   40.3750  -46.7040    8.8748 N   0  0  0  0  0  0  0  0  0  0  0  0
   41.2412  -46.5814    7.8547 C   0  0  0  0  0  0  0  0  0  0  0  0
   42.4268  -45.7413    7.7556 C   0  0  0  0  0  0  0  0  0  0  0  0
   42.7622  -44.8812    8.7727 C   0  0  0  0  0  0  0  0  0  0  0  0
   43.8974  -44.1146    8.6335 C   0  0  0  0  0  0  0  0  0  0  0  0
   44.6889  -44.2046    7.4934 C   0  0  0  0  0  0  0  0  0  0  0  0
   44.3712  -45.0538    6.4708 C   0  0  0  0  0  0  0  0  0  0  0  0
   45.1301  -45.2283    5.2334 C   0  0  0  0  0  0  0  0  0  0  0  0
   44.3976  -45.3411    4.0254 N   0  0  0  0  0  0  0  0  0  0  0  0
   44.0330  -44.2029    3.2502 C   0  0  0  0  0  0  0  0  0  0  0  0
   44.3966  -43.0500    3.6452 O   0  0  0  0  0  0  0  0  0  0  0  0
   43.2543  -44.2900    2.0264 C   0  0  0  0  0  0  0  0  0  0  0  0
   43.0271  -42.9183    1.4213 C   0  0  0  0  0  0  0  0  0  0  0  0
   41.8604  -44.8653    2.3063 C   0  0  0  0  0  0  0  0  0  0  0  0
   43.8736  -45.2086    1.0391 C   0  0  0  0  0  0  0  0  0  0  0  0
   43.2922  -45.9932    0.0856 C   0  0  0  0  0  0  0  0  0  0  0  0
   44.0766  -46.7395   -0.6922 C   0  0  0  0  0  0  0  0  0  0  0  0
   45.4291  -46.6679   -0.4799 C   0  0  0  0  0  0  0  0  0  0  0  0
   45.5539  -45.5568    0.8029 S   0  0  0  0  0  0  0  0  0  0  0  0
   43.2198  -45.8201    6.6311 C   0  0  0  0  0  0  0  0  0  0  0  0
   40.8110  -47.3974    6.8941 N   0  0  0  0  0  0  0  0  0  0  0  0
  1  2  1  0  0  0  0
  2  3  2  0  0  0  0
  3  4  1  0  0  0  0
  4  5  1  0  0  0  0
  5  6  1  0  0  0  0
  5 24  2  0  0  0  0
  6  7  2  0  0  0  0
  7  8  1  0  0  0  0
  8  9  2  0  0  0  0
  9 10  1  0  0  0  0
 10 11  1  0  0  0  0
 10 23  2  0  0  0  0
 11 12  1  0  0  0  0
 12 13  1  0  0  0  0
 13 14  2  0  0  0  0
 13 15  1  0  0  0  0
 15 16  1  0  0  0  0
 15 17  1  0  0  0  0
 15 18  1  0  0  0  0
 18 19  2  0  0  0  0
 19 20  1  0  0  0  0
 20 21  2  0  0  0  0
 21 22  1  0  0  0  0
 22 18  1  0  0  0  0
 23  6  1  0  0  0  0
 24  2  1  0  0  0  0
M  END
>  <CHROM.1>
-2.89768431,-138.28595558,88.92344606,-179.81227612,149.28258199,43.04259594
-45.62149819,4.54231454,2.14203888,0.69470457,1.37294089

>  <Name>
design_6

>  <RI>
0

>  <Rbt.Current_Directory>
/home/ziqiaoxu/icml18-jtnn/VAEdesign

>  <Rbt.Executable>
rbdock ($Id: //depot/dev/client3/rdock/2013.1/src/exe/rbdock.cxx#4 $)

>  <Rbt.Library>
libRbt.so (2013.1, Build901 2013/11/27)

>  <Rbt.Parameter_File>
/export/apps/rDock/src/rDock_2013.1_src//data/scripts/dock.prm

>  <Rbt.Receptor>
/home/ziqiaoxu/icml18-jtnn/VAEdesign/targets/RdRp-SARS-CoV-2/pocket_docking.prm

>  <SCORE>
-17.8189

>  <SCORE.INTER>
-17.4148

>  <SCORE.INTER.CONST>
1

>  <SCORE.INTER.POLAR>
-0.401074

>  <SCORE.INTER.REPUL>
0.00494593

>  <SCORE.INTER.ROT>
5

>  <SCORE.INTER.VDW>
-26.4758

>  <SCORE.INTER.norm>
-0.725615

>  <SCORE.INTRA>
-0.404161

>  <SCORE.INTRA.DIHEDRAL>
-0.622164

>  <SCORE.INTRA.DIHEDRAL.0>
3.62325

>  <SCORE.INTRA.POLAR>
0

>  <SCORE.INTRA.POLAR.0>
0

>  <SCORE.INTRA.REPUL>
0

>  <SCORE.INTRA.REPUL.0>
0

>  <SCORE.INTRA.VDW>
-0.093079

>  <SCORE.INTRA.VDW.0>
1.24153

>  <SCORE.INTRA.norm>
-0.01684

>  <SCORE.RESTR>
0

>  <SCORE.RESTR.CAVITY>
0

>  <SCORE.RESTR.norm>
0

>  <SCORE.SYSTEM>
0

>  <SCORE.SYSTEM.CONST>
0

>  <SCORE.SYSTEM.DIHEDRAL>
0

>  <SCORE.SYSTEM.norm>
0

>  <SCORE.heavy>
24

>  <SCORE.norm>
-0.742455

$$$$
design_9
 OpenBabel05252019093D

 23 25  0  0  0  0  0  0  0  0999 V2000
   40.3835  -38.1553    3.9293 C   0  0  0  0  0  0  0  0  0  0  0  0
   40.0807  -37.5918    5.1847 O   0  0  0  0  0  0  0  0  0  0  0  0
   39.9956  -38.4136    6.3018 C   0  0  0  0  0  0  0  0  0  0  0  0
   40.4531  -38.0268    7.5271 C   0  0  0  0  0  0  0  0  0  0  0  0
   40.3367  -38.8932    8.6168 C   0  0  0  0  0  0  0  0  0  0  0  0
   39.7832  -40.1372    8.5445 C   0  0  0  0  0  0  0  0  0  0  0  0
   39.6116  -41.0747    9.5578 N   0  0  0  0  0  0  0  0  0  0  0  0
   39.4500  -41.9572   10.5120 C   0  0  0  0  0  0  0  0  0  0  0  0
   39.2713  -41.7648   11.7447 O   0  0  0  0  0  0  0  0  0  0  0  0
   39.4685  -43.4647   10.1813 C   0  0  0  0  0  0  0  0  0  0  0  0
   40.8951  -43.9104   10.2991 C   0  0  0  0  0  0  0  0  0  0  0  0
   41.2472  -44.8385    9.2155 N   0  0  0  0  0  0  0  0  0  0  0  0
   42.3556  -44.8286    8.5012 N   0  0  0  0  0  0  0  0  0  0  0  0
   42.3769  -45.7986    7.5842 C   0  0  0  0  0  0  0  0  0  0  0  0
   41.2117  -46.4933    7.6989 C   0  0  0  0  0  0  0  0  0  0  0  0
   40.6616  -47.5836    7.0492 C   0  0  0  0  0  0  0  0  0  0  0  0
   39.4195  -48.0332    7.4475 C   0  0  0  0  0  0  0  0  0  0  0  0
   38.7951  -49.2245    6.7689 C   0  0  0  0  0  0  0  0  0  0  0  0
   38.7294  -47.4188    8.4698 C   0  0  0  0  0  0  0  0  0  0  0  0
   39.2785  -46.3275    9.1219 C   0  0  0  0  0  0  0  0  0  0  0  0
   40.5025  -45.8728    8.7398 C   0  0  0  0  0  0  0  0  0  0  0  0
   39.3140  -40.5122    7.2456 C   0  0  0  0  0  0  0  0  0  0  0  0
   39.4228  -39.6736    6.1800 C   0  0  0  0  0  0  0  0  0  0  0  0
  1  2  1  0  0  0  0
  2  3  1  0  0  0  0
  3  4  2  0  0  0  0
  4  5  1  0  0  0  0
  5  6  2  0  0  0  0
  6  7  1  0  0  0  0
  6 22  1  0  0  0  0
  7  8  1  0  0  0  0
  8  9  2  0  0  0  0
  8 10  1  0  0  0  0
 10 11  1  0  0  0  0
 11 12  1  0  0  0  0
 12 13  1  0  0  0  0
 13 14  2  0  0  0  0
 14 15  1  0  0  0  0
 15 16  2  0  0  0  0
 16 17  1  0  0  0  0
 17 18  1  0  0  0  0
 17 19  2  0  0  0  0
 19 20  1  0  0  0  0
 20 21  2  0  0  0  0
 21 12  1  0  0  0  0
 21 15  1  0  0  0  0
 22 23  2  0  0  0  0
 23  3  1  0  0  0  0
M  END
>  <CHROM.1>
141.85193902,33.55251767,89.83001291,-139.01919239,136.26287888,40.12572103
-42.97782875,8.10537180,-1.70604222,-1.49213714,2.84131194

>  <Name>
design_9

>  <RI>
0

>  <Rbt.Current_Directory>
/home/ziqiaoxu/icml18-jtnn/VAEdesign

>  <Rbt.Executable>
rbdock ($Id: //depot/dev/client3/rdock/2013.1/src/exe/rbdock.cxx#4 $)

>  <Rbt.Library>
libRbt.so (2013.1, Build901 2013/11/27)

>  <Rbt.Parameter_File>
/export/apps/rDock/src/rDock_2013.1_src//data/scripts/dock.prm

>  <Rbt.Receptor>
/home/ziqiaoxu/icml18-jtnn/VAEdesign/targets/RdRp-SARS-CoV-2/pocket_docking.prm

>  <SCORE>
-19.5951

>  <SCORE.INTER>
-17.9813

>  <SCORE.INTER.CONST>
1

>  <SCORE.INTER.POLAR>
-0.560623

>  <SCORE.INTER.REPUL>
0

>  <SCORE.INTER.ROT>
5

>  <SCORE.INTER.VDW>
-26.4752

>  <SCORE.INTER.norm>
-0.781796

>  <SCORE.INTRA>
-1.61382

>  <SCORE.INTRA.DIHEDRAL>
5.32113

>  <SCORE.INTRA.DIHEDRAL.0>
8.00329

>  <SCORE.INTRA.POLAR>
0

>  <SCORE.INTRA.POLAR.0>
0

>  <SCORE.INTRA.REPUL>
0

>  <SCORE.INTRA.REPUL.0>
0

>  <SCORE.INTRA.VDW>
-4.27439

>  <SCORE.INTRA.VDW.0>
6.3024

>  <SCORE.INTRA.norm>
-0.0701662

>  <SCORE.RESTR>
0

>  <SCORE.RESTR.CAVITY>
0

>  <SCORE.RESTR.norm>
0

>  <SCORE.SYSTEM>
0

>  <SCORE.SYSTEM.CONST>
0

>  <SCORE.SYSTEM.DIHEDRAL>
0

>  <SCORE.SYSTEM.norm>
0

>  <SCORE.heavy>
23

>  <SCORE.norm>
-0.851962

$$$$
design_0
 OpenBabel05252019093D

 25 27  0  0  0  0  0  0  0  0999 V2000
   40.1539  -46.1988   10.1996 N   0  0  0  0  0  0  0  0  0  0  0  0
   40.8513  -45.7615    9.0460 C   0  0  0  0  0  0  0  0  0  0  0  0
   41.6348  -44.7891    9.1112 O   0  0  0  0  0  0  0  0  0  0  0  0
   40.6774  -46.4256    7.7639 C   0  0  0  0  0  0  0  0  0  0  0  0
   39.7433  -47.4071    7.6502 C   0  0  0  0  0  0  0  0  0  0  0  0
   39.5372  -48.0745    6.4456 C   0  0  0  0  0  0  0  0  0  0  0  0
   40.3039  -47.7209    5.3558 C   0  0  0  0  0  0  0  0  0  0  0  0
   41.2615  -46.7163    5.4677 C   0  0  0  0  0  0  0  0  0  0  0  0
   42.0950  -46.3319    4.3036 C   0  0  0  0  0  0  0  0  0  0  0  0
   41.6430  -45.0931    3.7167 N   0  0  0  0  0  0  0  0  0  0  0  0
   41.7931  -44.7713    2.3471 C   0  0  0  0  0  0  0  0  0  0  0  0
   42.3362  -45.5437    1.5181 O   0  0  0  0  0  0  0  0  0  0  0  0
   41.2904  -43.4658    1.8540 C   0  0  0  0  0  0  0  0  0  0  0  0
   42.4096  -42.6678    1.2137 C   0  0  0  0  0  0  0  0  0  0  0  0
   41.8520  -40.9613    0.9677 S   0  0  0  0  0  0  0  0  0  0  0  0
   41.6939  -40.0857    2.5156 C   0  0  0  0  0  0  0  0  0  0  0  0
   42.1576  -40.6323    3.6504 N   0  0  0  0  0  0  0  0  0  0  0  0
   42.1085  -40.1021    4.8580 C   0  0  0  0  0  0  0  0  0  0  0  0
   41.5221  -38.8713    4.9384 N   0  0  0  0  0  0  0  0  0  0  0  0
   41.0296  -38.2552    3.8318 C   0  0  0  0  0  0  0  0  0  0  0  0
   40.2541  -36.7658    3.5504 S   0  0  0  0  0  0  0  0  0  0  0  0
   40.0201  -36.8849    1.8665 C   0  0  0  0  0  0  0  0  0  0  0  0
   40.5629  -38.1049    1.5657 C   0  0  0  0  0  0  0  0  0  0  0  0
   41.0875  -38.8156    2.5906 C   0  0  0  0  0  0  0  0  0  0  0  0
   41.4390  -46.0793    6.6691 C   0  0  0  0  0  0  0  0  0  0  0  0
  1  2  1  0  0  0  0
  2  3  2  0  0  0  0
  2  4  1  0  0  0  0
  4  5  2  0  0  0  0
  5  6  1  0  0  0  0
  6  7  2  0  0  0  0
  7  8  1  0  0  0  0
  8  9  1  0  0  0  0
  8 25  2  0  0  0  0
  9 10  1  0  0  0  0
 10 11  1  0  0  0  0
 11 12  2  0  0  0  0
 11 13  1  0  0  0  0
 13 14  1  0  0  0  0
 14 15  1  0  0  0  0
 15 16  1  0  0  0  0
 16 17  2  0  0  0  0
 17 18  1  0  0  0  0
 18 19  2  0  0  0  0
 19 20  1  0  0  0  0
 20 21  1  0  0  0  0
 21 22  1  0  0  0  0
 22 23  2  0  0  0  0
 23 24  1  0  0  0  0
 24 16  1  0  0  0  0
 24 20  2  0  0  0  0
 25  4  1  0  0  0  0
M  END
>  <CHROM.1>
5.72207549,103.32659074,-150.80136810,122.14049062,-167.40582681,70.40766127
9.64183399,41.17927131,-42.69394659,4.32388776,1.71335874,-1.36108052,2.76840932

>  <Name>
design_0

>  <RI>
0

>  <Rbt.Current_Directory>
/home/ziqiaoxu/icml18-jtnn/VAEdesign

>  <Rbt.Executable>
rbdock ($Id: //depot/dev/client3/rdock/2013.1/src/exe/rbdock.cxx#4 $)

>  <Rbt.Library>
libRbt.so (2013.1, Build901 2013/11/27)

>  <Rbt.Parameter_File>
/export/apps/rDock/src/rDock_2013.1_src//data/scripts/dock.prm

>  <Rbt.Receptor>
/home/ziqiaoxu/icml18-jtnn/VAEdesign/targets/RdRp-SARS-CoV-2/pocket_docking.prm

>  <SCORE>
-22.9004

>  <SCORE.INTER>
-22.714

>  <SCORE.INTER.CONST>
1

>  <SCORE.INTER.POLAR>
-2.584

>  <SCORE.INTER.REPUL>
0.0291263

>  <SCORE.INTER.ROT>
7

>  <SCORE.INTER.VDW>
-26.4741

>  <SCORE.INTER.norm>
-0.908561

>  <SCORE.INTRA>
-0.186329

>  <SCORE.INTRA.DIHEDRAL>
2.44332

>  <SCORE.INTRA.DIHEDRAL.0>
5.09459

>  <SCORE.INTRA.POLAR>
0

>  <SCORE.INTRA.POLAR.0>
0

>  <SCORE.INTRA.REPUL>
0

>  <SCORE.INTRA.REPUL.0>
0

>  <SCORE.INTRA.VDW>
-1.40799

>  <SCORE.INTRA.VDW.0>
0.00858709

>  <SCORE.INTRA.norm>
-0.00745316

>  <SCORE.RESTR>
0

>  <SCORE.RESTR.CAVITY>
0

>  <SCORE.RESTR.norm>
0

>  <SCORE.SYSTEM>
0

>  <SCORE.SYSTEM.CONST>
0

>  <SCORE.SYSTEM.DIHEDRAL>
0

>  <SCORE.SYSTEM.norm>
0

>  <SCORE.heavy>
25

>  <SCORE.norm>
-0.916015

$$$$
design_16
 OpenBabel05252019093D

 22 24  0  0  0  0  0  0  0  0999 V2000
   41.2391  -44.4557   10.9107 C   0  0  0  0  0  0  0  0  0  0  0  0
   40.7358  -45.4241    9.8955 C   0  0  0  0  0  0  0  0  0  0  0  0
   39.6468  -46.1677    9.9165 N   0  0  0  0  0  0  0  0  0  0  0  0
   39.5288  -46.9178    8.8177 C   0  0  0  0  0  0  0  0  0  0  0  0
   38.6141  -47.8166    8.3554 C   0  0  0  0  0  0  0  0  0  0  0  0
   38.7511  -48.4382    7.1427 C   0  0  0  0  0  0  0  0  0  0  0  0
   39.8382  -48.1649    6.3435 C   0  0  0  0  0  0  0  0  0  0  0  0
   40.7624  -47.2707    6.7881 C   0  0  0  0  0  0  0  0  0  0  0  0
   40.6430  -46.6365    8.0067 C   0  0  0  0  0  0  0  0  0  0  0  0
   41.3905  -45.7086    8.6826 C   0  0  0  0  0  0  0  0  0  0  0  0
   42.6195  -45.0578    8.2688 C   0  0  0  0  0  0  0  0  0  0  0  0
   42.9363  -43.9323    8.8483 O   0  0  0  0  0  0  0  0  0  0  0  0
   43.4778  -45.5634    7.3016 N   0  0  0  0  0  0  0  0  0  0  0  0
   44.6797  -44.8216    6.9538 C   0  0  0  0  0  0  0  0  0  0  0  0
   45.3016  -45.4043    5.7396 C   0  0  0  0  0  0  0  0  0  0  0  0
   45.8043  -45.8601    4.7417 C   0  0  0  0  0  0  0  0  0  0  0  0
   46.4122  -46.3982    3.5581 C   0  0  0  0  0  0  0  0  0  0  0  0
   45.8356  -46.1683    2.3360 C   0  0  0  0  0  0  0  0  0  0  0  0
   46.4078  -46.6809    1.1700 C   0  0  0  0  0  0  0  0  0  0  0  0
   47.5704  -47.4357    1.2000 C   0  0  0  0  0  0  0  0  0  0  0  0
   48.1388  -47.6592    2.4301 C   0  0  0  0  0  0  0  0  0  0  0  0
   47.5813  -47.1576    3.5843 C   0  0  0  0  0  0  0  0  0  0  0  0
  1  2  1  0  0  0  0
  2  3  1  0  0  0  0
  3  4  1  0  0  0  0
  4  5  2  0  0  0  0
  5  6  1  0  0  0  0
  6  7  2  0  0  0  0
  7  8  1  0  0  0  0
  8  9  2  0  0  0  0
  9 10  1  0  0  0  0
  9  4  1  0  0  0  0
 10 11  1  0  0  0  0
 10  2  2  0  0  0  0
 11 12  2  0  0  0  0
 11 13  1  0  0  0  0
 13 14  1  0  0  0  0
 14 15  1  0  0  0  0
 15 16  3  0  0  0  0
 16 17  1  0  0  0  0
 17 18  2  0  0  0  0
 18 19  1  0  0  0  0
 19 20  2  0  0  0  0
 20 21  1  0  0  0  0
 21 22  2  0  0  0  0
 22 17  1  0  0  0  0
M  END
>  <CHROM.1>
-18.82696017,-169.38039705,117.43723042,-131.09705434,43.06197792,-46.28943457
6.47637203,-2.51507241,-0.45231028,-2.18977450

>  <Name>
design_16

>  <RI>
0

>  <Rbt.Current_Directory>
/home/ziqiaoxu/icml18-jtnn/VAEdesign

>  <Rbt.Executable>
rbdock ($Id: //depot/dev/client3/rdock/2013.1/src/exe/rbdock.cxx#4 $)

>  <Rbt.Library>
libRbt.so (2013.1, Build901 2013/11/27)

>  <Rbt.Parameter_File>
/export/apps/rDock/src/rDock_2013.1_src//data/scripts/dock.prm

>  <Rbt.Receptor>
/home/ziqiaoxu/icml18-jtnn/VAEdesign/targets/RdRp-SARS-CoV-2/pocket_docking.prm

>  <SCORE>
-20.5111

>  <SCORE.INTER>
-20.5349

>  <SCORE.INTER.CONST>
1

>  <SCORE.INTER.POLAR>
-1.0198

>  <SCORE.INTER.REPUL>
0

>  <SCORE.INTER.ROT>
4

>  <SCORE.INTER.VDW>
-26.4676

>  <SCORE.INTER.norm>
-0.933404

>  <SCORE.INTRA>
0.0237736

>  <SCORE.INTRA.DIHEDRAL>
-1.02743

>  <SCORE.INTRA.DIHEDRAL.0>
3.54097

>  <SCORE.INTRA.POLAR>
0

>  <SCORE.INTRA.POLAR.0>
0

>  <SCORE.INTRA.REPUL>
0

>  <SCORE.INTRA.REPUL.0>
0

>  <SCORE.INTRA.VDW>
0.537491

>  <SCORE.INTRA.VDW.0>
-0.547097

>  <SCORE.INTRA.norm>
0.00108062

>  <SCORE.RESTR>
0

>  <SCORE.RESTR.CAVITY>
0

>  <SCORE.RESTR.norm>
0

>  <SCORE.SYSTEM>
0

>  <SCORE.SYSTEM.CONST>
0

>  <SCORE.SYSTEM.DIHEDRAL>
0

>  <SCORE.SYSTEM.norm>
0

>  <SCORE.heavy>
22

>  <SCORE.norm>
-0.932324

$$$$
design_9
 OpenBabel05252019093D

 26 28  0  0  0  0  0  0  0  0999 V2000
   42.6311  -40.9066    1.5483 C   0  0  0  0  0  0  0  0  0  0  0  0
   41.7375  -40.2035    2.4511 N   0  0  0  0  0  0  0  0  0  0  0  0
   42.2277  -39.4345    3.5195 C   0  0  0  0  0  0  0  0  0  0  0  0
   43.4833  -39.3561    3.6794 O   0  0  0  0  0  0  0  0  0  0  0  0
   41.3861  -38.7167    4.4684 C   0  0  0  0  0  0  0  0  0  0  0  0
   40.7768  -37.5468    4.0983 C   0  0  0  0  0  0  0  0  0  0  0  0
   39.9644  -36.8815    4.9923 C   0  0  0  0  0  0  0  0  0  0  0  0
   39.7625  -37.3829    6.2468 C   0  0  0  0  0  0  0  0  0  0  0  0
   40.3472  -38.5491    6.6675 C   0  0  0  0  0  0  0  0  0  0  0  0
   40.0866  -39.0654    7.9546 N   0  0  0  0  0  0  0  0  0  0  0  0
   40.1133  -40.4201    8.2919 C   0  0  0  0  0  0  0  0  0  0  0  0
   40.4102  -41.3057    7.4840 O   0  0  0  0  0  0  0  0  0  0  0  0
   39.7771  -40.8158    9.6581 N   0  0  0  0  0  0  0  0  0  0  0  0
   39.7891  -42.1233   10.0709 C   0  0  0  0  0  0  0  0  0  0  0  0
   39.8016  -43.4578   10.4925 C   0  0  0  0  0  0  0  0  0  0  0  0
   41.1083  -44.2434   10.4949 C   0  0  0  0  0  0  0  0  0  0  0  0
   41.3524  -44.9869    9.3028 N   0  0  0  0  0  0  0  0  0  0  0  0
   42.4261  -44.9191    8.4607 C   0  0  0  0  0  0  0  0  0  0  0  0
   42.2995  -45.8250    7.4516 C   0  0  0  0  0  0  0  0  0  0  0  0
   41.1112  -46.4900    7.6563 C   0  0  0  0  0  0  0  0  0  0  0  0
   40.5079  -47.4962    6.9342 C   0  0  0  0  0  0  0  0  0  0  0  0
   39.2952  -48.0063    7.3477 C   0  0  0  0  0  0  0  0  0  0  0  0
   38.7379  -47.4697    8.4892 C   0  0  0  0  0  0  0  0  0  0  0  0
   39.3399  -46.4645    9.2130 C   0  0  0  0  0  0  0  0  0  0  0  0
   40.5493  -45.9532    8.8026 C   0  0  0  0  0  0  0  0  0  0  0  0
   41.1589  -39.1898    5.7405 C   0  0  0  0  0  0  0  0  0  0  0  0
  1  2  1  0  0  0  0
  2  3  1  0  0  0  0
  3  4  2  0  0  0  0
  3  5  1  0  0  0  0
  5  6  2  0  0  0  0
  6  7  1  0  0  0  0
  7  8  2  0  0  0  0
  8  9  1  0  0  0  0
  9 10  1  0  0  0  0
  9 26  2  0  0  0  0
 10 11  1  0  0  0  0
 11 12  2  0  0  0  0
 11 13  1  0  0  0  0
 13 14  1  0  0  0  0
 14 15  1  0  0  0  0
 15 16  1  0  0  0  0
 16 17  1  0  0  0  0
 17 18  1  0  0  0  0
 18 19  2  0  0  0  0
 19 20  1  0  0  0  0
 20 21  2  0  0  0  0
 21 22  1  0  0  0  0
 22 23  2  0  0  0  0
 23 24  1  0  0  0  0
 24 25  2  0  0  0  0
 25 17  1  0  0  0  0
 25 20  1  0  0  0  0
 26  5  1  0  0  0  0
M  END
>  <CHROM.1>
-75.77787706,150.75635358,125.50417449,-61.89570216,-92.91361168,123.11646599
40.79211845,-42.14756264,6.96760751,-1.25535267,-1.20878616,2.91732288

>  <Name>
design_9

>  <RI>
0

>  <Rbt.Current_Directory>
/home/ziqiaoxu/icml18-jtnn/VAEdesign

>  <Rbt.Executable>
rbdock ($Id: //depot/dev/client3/rdock/2013.1/src/exe/rbdock.cxx#4 $)

>  <Rbt.Library>
libRbt.so (2013.1, Build901 2013/11/27)

>  <Rbt.Parameter_File>
/export/apps/rDock/src/rDock_2013.1_src//data/scripts/dock.prm

>  <Rbt.Receptor>
/home/ziqiaoxu/icml18-jtnn/VAEdesign/targets/RdRp-SARS-CoV-2/pocket_docking.prm

>  <SCORE>
-19.151

>  <SCORE.INTER>
-25.4791

>  <SCORE.INTER.CONST>
1

>  <SCORE.INTER.POLAR>
-3.06538

>  <SCORE.INTER.REPUL>
0

>  <SCORE.INTER.ROT>
6

>  <SCORE.INTER.VDW>
-26.4568

>  <SCORE.INTER.norm>
-0.979964

>  <SCORE.INTRA>
6.28052

>  <SCORE.INTRA.DIHEDRAL>
13.6934

>  <SCORE.INTRA.DIHEDRAL.0>
8.04173

>  <SCORE.INTRA.POLAR>
0

>  <SCORE.INTRA.POLAR.0>
0

>  <SCORE.INTRA.REPUL>
0

>  <SCORE.INTRA.REPUL.0>
0

>  <SCORE.INTRA.VDW>
-0.566175

>  <SCORE.INTRA.VDW.0>
-1.4968

>  <SCORE.INTRA.norm>
0.241558

>  <SCORE.RESTR>
0.0475251

>  <SCORE.RESTR.CAVITY>
0.0475251

>  <SCORE.RESTR.norm>
0.00182789

>  <SCORE.SYSTEM>
0

>  <SCORE.SYSTEM.CONST>
0

>  <SCORE.SYSTEM.DIHEDRAL>
0

>  <SCORE.SYSTEM.norm>
0

>  <SCORE.heavy>
26

>  <SCORE.norm>
-0.736577

$$$$
design_2
 OpenBabel05252019093D

 24 26  0  0  0  0  0  0  0  0999 V2000
   39.2904  -48.7595    6.9226 C   0  0  0  0  0  0  0  0  0  0  0  0
   39.9417  -47.6190    7.6781 C   0  0  0  0  0  0  0  0  0  0  0  0
   41.0401  -46.9656    7.3810 N   0  0  0  0  0  0  0  0  0  0  0  0
   41.4577  -46.0010    8.1541 C   0  0  0  0  0  0  0  0  0  0  0  0
   42.7047  -45.2376    7.8433 C   0  0  0  0  0  0  0  0  0  0  0  0
   42.9866  -44.0764    8.5317 C   0  0  0  0  0  0  0  0  0  0  0  0
   44.1394  -43.4040    8.2211 C   0  0  0  0  0  0  0  0  0  0  0  0
   45.0084  -43.8451    7.2598 C   0  0  0  0  0  0  0  0  0  0  0  0
   44.7282  -45.0221    6.5578 C   0  0  0  0  0  0  0  0  0  0  0  0
   45.6410  -45.4659    5.5991 N   0  0  0  0  0  0  0  0  0  0  0  0
   46.1165  -44.7304    4.5231 C   0  0  0  0  0  0  0  0  0  0  0  0
   45.7903  -43.5665    4.2791 O   0  0  0  0  0  0  0  0  0  0  0  0
   47.0973  -45.3860    3.5829 C   0  0  0  0  0  0  0  0  0  0  0  0
   46.4420  -46.6326    3.0472 C   0  0  0  0  0  0  0  0  0  0  0  0
   45.5780  -46.2972    1.9457 N   0  0  0  0  0  0  0  0  0  0  0  0
   46.0479  -46.3620    0.6991 C   0  0  0  0  0  0  0  0  0  0  0  0
   45.2154  -46.0399   -0.3464 C   0  0  0  0  0  0  0  0  0  0  0  0
   43.9179  -45.6546   -0.1397 C   0  0  0  0  0  0  0  0  0  0  0  0
   43.4549  -45.5949    1.1555 C   0  0  0  0  0  0  0  0  0  0  0  0
   44.3154  -45.9238    2.1711 C   0  0  0  0  0  0  0  0  0  0  0  0
   43.9157  -45.8783    3.3833 O   0  0  0  0  0  0  0  0  0  0  0  0
   43.5858  -45.6834    6.8702 C   0  0  0  0  0  0  0  0  0  0  0  0
   40.6969  -45.7244    9.2623 C   0  0  0  0  0  0  0  0  0  0  0  0
   39.4311  -46.8689    9.1206 S   0  0  0  0  0  0  0  0  0  0  0  0
  1  2  1  0  0  0  0
  2  3  2  0  0  0  0
  3  4  1  0  0  0  0
  4  5  1  0  0  0  0
  4 23  2  0  0  0  0
  5  6  2  0  0  0  0
  6  7  1  0  0  0  0
  7  8  2  0  0  0  0
  8  9  1  0  0  0  0
  9 10  1  0  0  0  0
  9 22  2  0  0  0  0
 10 11  1  0  0  0  0
 11 12  2  0  0  0  0
 11 13  1  0  0  0  0
 13 14  1  0  0  0  0
 14 15  1  0  0  0  0
 15 16  1  0  0  0  0
 16 17  2  0  0  0  0
 17 18  1  0  0  0  0
 18 19  2  0  0  0  0
 19 20  1  0  0  0  0
 20 21  2  0  0  0  0
 20 15  1  0  0  0  0
 22  5  1  0  0  0  0
 23 24  1  0  0  0  0
 24  2  1  0  0  0  0
M  END
>  <CHROM.1>
168.10018892,-54.82176155,57.26855438,82.57086798,93.62228512,43.48192722
-45.77211184,5.33534870,2.31462208,0.52744280,1.24988297

>  <Name>
design_2

>  <RI>
0

>  <Rbt.Current_Directory>
/home/ziqiaoxu/icml18-jtnn/VAEdesign

>  <Rbt.Executable>
rbdock ($Id: //depot/dev/client3/rdock/2013.1/src/exe/rbdock.cxx#4 $)

>  <Rbt.Library>
libRbt.so (2013.1, Build901 2013/11/27)

>  <Rbt.Parameter_File>
/export/apps/rDock/src/rDock_2013.1_src//data/scripts/dock.prm

>  <Rbt.Receptor>
/home/ziqiaoxu/icml18-jtnn/VAEdesign/targets/RdRp-SARS-CoV-2/pocket_docking.prm

>  <SCORE>
-17.847

>  <SCORE.INTER>
-18.9573

>  <SCORE.INTER.CONST>
1

>  <SCORE.INTER.POLAR>
-0.853685

>  <SCORE.INTER.REPUL>
0

>  <SCORE.INTER.ROT>
5

>  <SCORE.INTER.VDW>
-26.4548

>  <SCORE.INTER.norm>
-0.789888

>  <SCORE.INTRA>
1.11031

>  <SCORE.INTRA.DIHEDRAL>
9.31854

>  <SCORE.INTRA.DIHEDRAL.0>
4.84819

>  <SCORE.INTRA.POLAR>
0

>  <SCORE.INTRA.POLAR.0>
0

>  <SCORE.INTRA.REPUL>
0

>  <SCORE.INTRA.REPUL.0>
0

>  <SCORE.INTRA.VDW>
-3.54896

>  <SCORE.INTRA.VDW.0>
1.85824

>  <SCORE.INTRA.norm>
0.0462627

>  <SCORE.RESTR>
0

>  <SCORE.RESTR.CAVITY>
0

>  <SCORE.RESTR.norm>
0

>  <SCORE.SYSTEM>
0

>  <SCORE.SYSTEM.CONST>
0

>  <SCORE.SYSTEM.DIHEDRAL>
0

>  <SCORE.SYSTEM.norm>
0

>  <SCORE.heavy>
24

>  <SCORE.norm>
-0.743625

$$$$
design_18
 OpenBabel05252019093D

 25 27  0  0  0  0  0  0  0  0999 V2000
   43.9780  -45.8653   -0.1573 C   0  0  0  0  0  0  0  0  0  0  0  0
   45.2568  -46.5458    0.1076 C   0  0  0  0  0  0  0  0  0  0  0  0
   45.8470  -47.1320   -0.8171 O   0  0  0  0  0  0  0  0  0  0  0  0
   45.8153  -46.5264    1.4422 C   0  0  0  0  0  0  0  0  0  0  0  0
   46.9360  -47.2904    1.7807 C   0  0  0  0  0  0  0  0  0  0  0  0
   47.4507  -47.2566    3.0571 C   0  0  0  0  0  0  0  0  0  0  0  0
   46.8621  -46.4641    4.0192 C   0  0  0  0  0  0  0  0  0  0  0  0
   45.7557  -45.6950    3.7285 C   0  0  0  0  0  0  0  0  0  0  0  0
   45.1702  -44.9033    4.6955 O   0  0  0  0  0  0  0  0  0  0  0  0
   44.9485  -45.4613    5.9750 C   0  0  0  0  0  0  0  0  0  0  0  0
   44.3727  -44.4762    6.9184 C   0  0  0  0  0  0  0  0  0  0  0  0
   43.4587  -43.7142    6.5365 O   0  0  0  0  0  0  0  0  0  0  0  0
   44.8440  -44.3900    8.2379 N   0  0  0  0  0  0  0  0  0  0  0  0
   44.3138  -43.4547    9.1636 C   0  0  0  0  0  0  0  0  0  0  0  0
   43.6391  -44.0502   10.3772 C   0  0  0  0  0  0  0  0  0  0  0  0
   42.4373  -44.7819    9.8511 C   0  0  0  0  0  0  0  0  0  0  0  0
   42.2946  -45.5179    8.7704 N   0  0  0  0  0  0  0  0  0  0  0  0
   41.1384  -46.0688    8.5041 C   0  0  0  0  0  0  0  0  0  0  0  0
   40.8403  -46.8754    7.3929 C   0  0  0  0  0  0  0  0  0  0  0  0
   39.5991  -47.3875    7.2317 C   0  0  0  0  0  0  0  0  0  0  0  0
   38.5495  -47.1836    8.0943 C   0  0  0  0  0  0  0  0  0  0  0  0
   38.8298  -46.3834    9.2046 C   0  0  0  0  0  0  0  0  0  0  0  0
   40.1142  -45.8488    9.3790 C   0  0  0  0  0  0  0  0  0  0  0  0
   40.8828  -44.8487   10.5503 S   0  0  0  0  0  0  0  0  0  0  0  0
   45.2691  -45.7477    2.4613 C   0  0  0  0  0  0  0  0  0  0  0  0
  1  2  1  0  0  0  0
  2  3  2  0  0  0  0
  2  4  1  0  0  0  0
  4  5  2  0  0  0  0
  5  6  1  0  0  0  0
  6  7  2  0  0  0  0
  7  8  1  0  0  0  0
  8  9  1  0  0  0  0
  8 25  2  0  0  0  0
  9 10  1  0  0  0  0
 10 11  1  0  0  0  0
 11 12  2  0  0  0  0
 11 13  1  0  0  0  0
 13 14  1  0  0  0  0
 14 15  1  0  0  0  0
 15 16  1  0  0  0  0
 16 17  2  0  0  0  0
 17 18  1  0  0  0  0
 18 19  2  0  0  0  0
 19 20  1  0  0  0  0
 20 21  2  0  0  0  0
 21 22  1  0  0  0  0
 22 23  2  0  0  0  0
 23 24  1  0  0  0  0
 23 18  1  0  0  0  0
 24 16  1  0  0  0  0
 25  4  1  0  0  0  0
M  END
>  <CHROM.1>
172.05879431,-45.61555486,177.40105803,43.04198591,117.44486677,-65.08339717
39.78617729,43.44819301,-45.67619397,6.06570513,0.99824384,-0.35016561,-1.92299753

>  <Name>
design_18

>  <RI>
0

>  <Rbt.Current_Directory>
/home/ziqiaoxu/icml18-jtnn/VAEdesign

>  <Rbt.Executable>
rbdock ($Id: //depot/dev/client3/rdock/2013.1/src/exe/rbdock.cxx#4 $)

>  <Rbt.Library>
libRbt.so (2013.1, Build901 2013/11/27)

>  <Rbt.Parameter_File>
/export/apps/rDock/src/rDock_2013.1_src//data/scripts/dock.prm

>  <Rbt.Receptor>
/home/ziqiaoxu/icml18-jtnn/VAEdesign/targets/RdRp-SARS-CoV-2/pocket_docking.prm

>  <SCORE>
-18.227

>  <SCORE.INTER>
-17.091

>  <SCORE.INTER.CONST>
1

>  <SCORE.INTER.POLAR>
-0.894427

>  <SCORE.INTER.REPUL>
0

>  <SCORE.INTER.ROT>
7

>  <SCORE.INTER.VDW>
-26.45

>  <SCORE.INTER.norm>
-0.68364

>  <SCORE.INTRA>
-1.13601

>  <SCORE.INTRA.DIHEDRAL>
2.8263

>  <SCORE.INTRA.DIHEDRAL.0>
3.88441

>  <SCORE.INTRA.POLAR>
0

>  <SCORE.INTRA.POLAR.0>
0

>  <SCORE.INTRA.REPUL>
0

>  <SCORE.INTRA.REPUL.0>
0

>  <SCORE.INTRA.VDW>
-2.54916

>  <SCORE.INTRA.VDW.0>
2.66128

>  <SCORE.INTRA.norm>
-0.0454402

>  <SCORE.RESTR>
0

>  <SCORE.RESTR.CAVITY>
0

>  <SCORE.RESTR.norm>
0

>  <SCORE.SYSTEM>
0

>  <SCORE.SYSTEM.CONST>
0

>  <SCORE.SYSTEM.DIHEDRAL>
0

>  <SCORE.SYSTEM.norm>
0

>  <SCORE.heavy>
25

>  <SCORE.norm>
-0.729081

$$$$
design_18
 OpenBabel05252019093D

 25 27  0  0  0  0  0  0  0  0999 V2000
   43.6305  -45.4881    6.7642 C   0  0  0  0  0  0  0  0  0  0  0  0
   42.4716  -45.6308    7.6982 C   0  0  0  0  0  0  0  0  0  0  0  0
   41.3275  -46.3611    7.4525 C   0  0  0  0  0  0  0  0  0  0  0  0
   40.5547  -46.1912    8.6007 C   0  0  0  0  0  0  0  0  0  0  0  0
   39.2153  -46.7739    8.8523 C   0  0  0  0  0  0  0  0  0  0  0  0
   41.2009  -45.4062    9.4778 N   0  0  0  0  0  0  0  0  0  0  0  0
   40.7320  -44.9845   10.8059 C   0  0  0  0  0  0  0  0  0  0  0  0
   40.6285  -43.4810   10.7559 C   0  0  0  0  0  0  0  0  0  0  0  0
   39.3623  -43.0256   10.0671 C   0  0  0  0  0  0  0  0  0  0  0  0
   39.3684  -41.5881    9.9495 N   0  0  0  0  0  0  0  0  0  0  0  0
   39.5760  -41.0203    8.6358 C   0  0  0  0  0  0  0  0  0  0  0  0
   39.7337  -41.8253    7.7076 O   0  0  0  0  0  0  0  0  0  0  0  0
   39.5804  -39.6183    8.5306 N   0  0  0  0  0  0  0  0  0  0  0  0
   39.7753  -38.8965    7.3527 C   0  0  0  0  0  0  0  0  0  0  0  0
   39.4914  -39.5469    6.1403 C   0  0  0  0  0  0  0  0  0  0  0  0
   39.6517  -38.8761    4.9556 C   0  0  0  0  0  0  0  0  0  0  0  0
   40.0862  -37.5749    4.9265 C   0  0  0  0  0  0  0  0  0  0  0  0
   40.2417  -36.9009    3.6278 C   0  0  0  0  0  0  0  0  0  0  0  0
   41.2272  -36.0866    3.2334 N   0  0  0  0  0  0  0  0  0  0  0  0
   41.0106  -35.6687    1.9668 C   0  0  0  0  0  0  0  0  0  0  0  0
   39.8649  -36.2464    1.5893 N   0  0  0  0  0  0  0  0  0  0  0  0
   39.3984  -36.9896    2.5871 N   0  0  0  0  0  0  0  0  0  0  0  0
   40.3688  -36.9195    6.0876 C   0  0  0  0  0  0  0  0  0  0  0  0
   40.2088  -37.5950    7.3120 C   0  0  0  0  0  0  0  0  0  0  0  0
   42.3506  -45.0819    8.9134 N   0  0  0  0  0  0  0  0  0  0  0  0
  1  2  1  0  0  0  0
  2  3  1  0  0  0  0
  3  4  2  0  0  0  0
  4  5  1  0  0  0  0
  4  6  1  0  0  0  0
  6  7  1  0  0  0  0
  6 25  1  0  0  0  0
  7  8  1  0  0  0  0
  8  9  1  0  0  0  0
  9 10  1  0  0  0  0
 10 11  1  0  0  0  0
 11 12  2  0  0  0  0
 11 13  1  0  0  0  0
 13 14  1  0  0  0  0
 14 15  2  0  0  0  0
 15 16  1  0  0  0  0
 16 17  2  0  0  0  0
 17 18  1  0  0  0  0
 17 23  1  0  0  0  0
 18 19  1  0  0  0  0
 19 20  2  0  0  0  0
 20 21  1  0  0  0  0
 21 22  1  0  0  0  0
 22 18  2  0  0  0  0
 23 24  2  0  0  0  0
 24 14  1  0  0  0  0
 25  2  2  0  0  0  0
M  END
>  <CHROM.1>
-118.07860220,79.54123090,-175.28929805,107.90416456,23.19249189,-138.69518362
40.43571574,-41.16154412,6.99795305,-1.40163074,1.09931998,-0.72498525

>  <Name>
design_18

>  <RI>
0

>  <Rbt.Current_Directory>
/home/ziqiaoxu/icml18-jtnn/VAEdesign

>  <Rbt.Executable>
rbdock ($Id: //depot/dev/client3/rdock/2013.1/src/exe/rbdock.cxx#4 $)

>  <Rbt.Library>
libRbt.so (2013.1, Build901 2013/11/27)

>  <Rbt.Parameter_File>
/export/apps/rDock/src/rDock_2013.1_src//data/scripts/dock.prm

>  <Rbt.Receptor>
/home/ziqiaoxu/icml18-jtnn/VAEdesign/targets/RdRp-SARS-CoV-2/pocket_docking.prm

>  <SCORE>
-17.5298

>  <SCORE.INTER>
-21.1896

>  <SCORE.INTER.CONST>
1

>  <SCORE.INTER.POLAR>
-1.97199

>  <SCORE.INTER.REPUL>
0.112955

>  <SCORE.INTER.ROT>
6

>  <SCORE.INTER.VDW>
-26.4496

>  <SCORE.INTER.norm>
-0.847582

>  <SCORE.INTRA>
3.2275

>  <SCORE.INTRA.DIHEDRAL>
8.07322

>  <SCORE.INTRA.DIHEDRAL.0>
4.40721

>  <SCORE.INTRA.POLAR>
0

>  <SCORE.INTRA.POLAR.0>
0

>  <SCORE.INTRA.REPUL>
0

>  <SCORE.INTRA.REPUL.0>
0

>  <SCORE.INTRA.VDW>
-0.809105

>  <SCORE.INTRA.VDW.0>
-0.857719

>  <SCORE.INTRA.norm>
0.1291

>  <SCORE.RESTR>
0.432273

>  <SCORE.RESTR.CAVITY>
0.432273

>  <SCORE.RESTR.norm>
0.0172909

>  <SCORE.SYSTEM>
0

>  <SCORE.SYSTEM.CONST>
0

>  <SCORE.SYSTEM.DIHEDRAL>
0

>  <SCORE.SYSTEM.norm>
0

>  <SCORE.heavy>
25

>  <SCORE.norm>
-0.701191

$$$$
design_18
 OpenBabel05252019093D

 24 25  0  0  0  0  0  0  0  0999 V2000
   41.5908  -39.7288    1.5700 C   0  0  0  0  0  0  0  0  0  0  0  0
   42.3042  -40.6762    2.5470 C   0  0  0  0  0  0  0  0  0  0  0  0
   42.0757  -40.1682    3.9163 C   0  0  0  0  0  0  0  0  0  0  0  0
   42.6813  -39.0822    4.2620 O   0  0  0  0  0  0  0  0  0  0  0  0
   41.2628  -40.7656    4.8741 N   0  0  0  0  0  0  0  0  0  0  0  0
   41.0113  -40.3024    6.1882 C   0  0  0  0  0  0  0  0  0  0  0  0
   41.0612  -38.8367    6.3159 C   0  0  0  0  0  0  0  0  0  0  0  0
   40.7075  -38.3587    7.5548 C   0  0  0  0  0  0  0  0  0  0  0  0
   40.3251  -39.0945    8.6396 C   0  0  0  0  0  0  0  0  0  0  0  0
   40.2748  -40.4446    8.5317 C   0  0  0  0  0  0  0  0  0  0  0  0
   39.9126  -41.4715    9.4186 N   0  0  0  0  0  0  0  0  0  0  0  0
   39.5767  -42.3924   10.2291 C   0  0  0  0  0  0  0  0  0  0  0  0
   38.7143  -42.3561   11.1648 O   0  0  0  0  0  0  0  0  0  0  0  0
   40.2984  -43.6513    9.9778 N   0  0  0  0  0  0  0  0  0  0  0  0
   40.7961  -44.8492    9.9038 C   0  0  0  0  0  0  0  0  0  0  0  0
   40.2881  -45.9190    9.0298 C   0  0  0  0  0  0  0  0  0  0  0  0
   39.1824  -46.6462    9.2087 C   0  0  0  0  0  0  0  0  0  0  0  0
   38.7074  -47.6817    8.4726 C   0  0  0  0  0  0  0  0  0  0  0  0
   39.5016  -48.0299    7.3457 C   0  0  0  0  0  0  0  0  0  0  0  0
   38.9648  -49.0839    6.4855 C   0  0  0  0  0  0  0  0  0  0  0  0
   40.6693  -47.3039    7.1049 C   0  0  0  0  0  0  0  0  0  0  0  0
   41.1058  -46.2632    7.8984 C   0  0  0  0  0  0  0  0  0  0  0  0
   42.3606  -45.5172    7.7394 C   0  0  0  0  0  0  0  0  0  0  0  0
   40.6514  -40.9503    7.2064 C   0  0  0  0  0  0  0  0  0  0  0  0
  1  2  1  0  0  0  0
  2  3  1  0  0  0  0
  3  4  2  0  0  0  0
  3  5  1  0  0  0  0
  5  6  1  0  0  0  0
  6  7  2  0  0  0  0
  7  8  1  0  0  0  0
  8  9  2  0  0  0  0
  9 10  1  0  0  0  0
 10 11  1  0  0  0  0
 10 24  2  0  0  0  0
 11 12  1  0  0  0  0
 12 13  2  0  0  0  0
 12 14  1  0  0  0  0
 14 15  1  0  0  0  0
 15 16  1  0  0  0  0
 16 17  2  0  0  0  0
 17 18  1  0  0  0  0
 18 19  2  0  0  0  0
 19 20  1  0  0  0  0
 19 21  1  0  0  0  0
 21 22  2  0  0  0  0
 22 23  1  0  0  0  0
 22 16  1  0  0  0  0
 24  6  1  0  0  0  0
M  END
>  <CHROM.1>
-71.14056909,30.74028200,24.04509361,85.89289447,-75.23807414,40.59266356
-42.86714531,7.29101982,-0.76884071,-1.27046303,-2.82984852

>  <Name>
design_18

>  <RI>
0

>  <Rbt.Current_Directory>
/home/ziqiaoxu/icml18-jtnn/VAEdesign

>  <Rbt.Executable>
rbdock ($Id: //depot/dev/client3/rdock/2013.1/src/exe/rbdock.cxx#4 $)

>  <Rbt.Library>
libRbt.so (2013.1, Build901 2013/11/27)

>  <Rbt.Parameter_File>
/export/apps/rDock/src/rDock_2013.1_src//data/scripts/dock.prm

>  <Rbt.Receptor>
/home/ziqiaoxu/icml18-jtnn/VAEdesign/targets/RdRp-SARS-CoV-2/pocket_docking.prm

>  <SCORE>
-33.048

>  <SCORE.INTER>
-24.0686

>  <SCORE.INTER.CONST>
1

>  <SCORE.INTER.POLAR>
-2.36036

>  <SCORE.INTER.REPUL>
0

>  <SCORE.INTER.ROT>
5

>  <SCORE.INTER.VDW>
-26.4433

>  <SCORE.INTER.norm>
-1.00286

>  <SCORE.INTRA>
-8.97942

>  <SCORE.INTRA.DIHEDRAL>
-15.553

>  <SCORE.INTRA.DIHEDRAL.0>
23.6082

>  <SCORE.INTRA.POLAR>
0

>  <SCORE.INTRA.POLAR.0>
0

>  <SCORE.INTRA.REPUL>
0

>  <SCORE.INTRA.REPUL.0>
0

>  <SCORE.INTRA.VDW>
-1.2029

>  <SCORE.INTRA.VDW.0>
1.70754

>  <SCORE.INTRA.norm>
-0.374142

>  <SCORE.RESTR>
0

>  <SCORE.RESTR.CAVITY>
0

>  <SCORE.RESTR.norm>
0

>  <SCORE.SYSTEM>
0

>  <SCORE.SYSTEM.CONST>
0

>  <SCORE.SYSTEM.DIHEDRAL>
0

>  <SCORE.SYSTEM.norm>
0

>  <SCORE.heavy>
24

>  <SCORE.norm>
-1.377

$$$$
design_17
 OpenBabel05252019093D

 27 30  0  0  0  0  0  0  0  0999 V2000
   40.0587  -46.2741   10.1790 N   0  0  0  0  0  0  0  0  0  0  0  0
   40.5285  -45.6852    8.9783 C   0  0  0  0  0  0  0  0  0  0  0  0
   41.0172  -44.5320    9.0042 O   0  0  0  0  0  0  0  0  0  0  0  0
   40.4386  -46.4288    7.7203 C   0  0  0  0  0  0  0  0  0  0  0  0
   39.8893  -47.6856    7.6942 C   0  0  0  0  0  0  0  0  0  0  0  0
   39.8290  -48.3399    6.4875 C   0  0  0  0  0  0  0  0  0  0  0  0
   40.3032  -47.7570    5.3395 C   0  0  0  0  0  0  0  0  0  0  0  0
   40.8721  -46.4743    5.3228 C   0  0  0  0  0  0  0  0  0  0  0  0
   41.3373  -45.9229    4.1148 N   0  0  0  0  0  0  0  0  0  0  0  0
   41.7372  -44.6086    3.8439 C   0  0  0  0  0  0  0  0  0  0  0  0
   41.7364  -43.6926    4.6903 O   0  0  0  0  0  0  0  0  0  0  0  0
   42.2076  -44.2278    2.4521 C   0  0  0  0  0  0  0  0  0  0  0  0
   42.2175  -45.3921    1.6478 O   0  0  0  0  0  0  0  0  0  0  0  0
   43.4461  -45.8415    1.1889 C   0  0  0  0  0  0  0  0  0  0  0  0
   43.5922  -46.0193   -0.1794 C   0  0  0  0  0  0  0  0  0  0  0  0
   44.8002  -46.4644   -0.6656 C   0  0  0  0  0  0  0  0  0  0  0  0
   45.8810  -46.7418    0.1768 C   0  0  0  0  0  0  0  0  0  0  0  0
   47.1016  -47.1645   -0.0298 O   0  0  0  0  0  0  0  0  0  0  0  0
   47.7726  -47.2797    1.0948 C   0  0  0  0  0  0  0  0  0  0  0  0
   46.9208  -46.9023    2.1092 C   0  0  0  0  0  0  0  0  0  0  0  0
   45.6988  -46.5534    1.5295 C   0  0  0  0  0  0  0  0  0  0  0  0
   44.4987  -46.1091    2.0349 C   0  0  0  0  0  0  0  0  0  0  0  0
   47.3084  -46.8953    3.5346 C   0  0  0  0  0  0  0  0  0  0  0  0
   48.6855  -47.4108    3.7807 C   0  0  0  0  0  0  0  0  0  0  0  0
   49.6340  -47.0093    2.6573 C   0  0  0  0  0  0  0  0  0  0  0  0
   49.1697  -47.7115    1.4095 C   0  0  0  0  0  0  0  0  0  0  0  0
   40.9210  -45.8407    6.5404 C   0  0  0  0  0  0  0  0  0  0  0  0
  1  2  1  0  0  0  0
  2  3  2  0  0  0  0
  2  4  1  0  0  0  0
  4  5  2  0  0  0  0
  5  6  1  0  0  0  0
  6  7  2  0  0  0  0
  7  8  1  0  0  0  0
  8  9  1  0  0  0  0
  8 27  2  0  0  0  0
  9 10  1  0  0  0  0
 10 11  2  0  0  0  0
 10 12  1  0  0  0  0
 12 13  1  0  0  0  0
 13 14  1  0  0  0  0
 14 15  2  0  0  0  0
 15 16  1  0  0  0  0
 16 17  2  0  0  0  0
 17 18  1  0  0  0  0
 18 19  1  0  0  0  0
 19 20  2  0  0  0  0
 20 21  1  0  0  0  0
 20 23  1  0  0  0  0
 21 22  2  0  0  0  0
 21 17  1  0  0  0  0
 22 14  1  0  0  0  0
 23 24  1  0  0  0  0
 24 25  1  0  0  0  0
 25 26  1  0  0  0  0
 26 19  1  0  0  0  0
 27  4  1  0  0  0  0
M  END
>  <CHROM.1>
0.71723136,169.03004357,-3.29490301,-114.63513031,-125.20937153,43.60299192
-46.30087230,3.84938163,-2.41290963,0.24709501,-1.42321258

>  <Name>
design_17

>  <RI>
0

>  <Rbt.Current_Directory>
/home/ziqiaoxu/icml18-jtnn/VAEdesign

>  <Rbt.Executable>
rbdock ($Id: //depot/dev/client3/rdock/2013.1/src/exe/rbdock.cxx#4 $)

>  <Rbt.Library>
libRbt.so (2013.1, Build901 2013/11/27)

>  <Rbt.Parameter_File>
/export/apps/rDock/src/rDock_2013.1_src//data/scripts/dock.prm

>  <Rbt.Receptor>
/home/ziqiaoxu/icml18-jtnn/VAEdesign/targets/RdRp-SARS-CoV-2/pocket_docking.prm

>  <SCORE>
-23.9354

>  <SCORE.INTER>
-27.48

>  <SCORE.INTER.CONST>
1

>  <SCORE.INTER.POLAR>
-3.44382

>  <SCORE.INTER.REPUL>
0.0541603

>  <SCORE.INTER.ROT>
5

>  <SCORE.INTER.VDW>
-26.4418

>  <SCORE.INTER.norm>
-1.01778

>  <SCORE.INTRA>
3.5446

>  <SCORE.INTRA.DIHEDRAL>
10.6014

>  <SCORE.INTRA.DIHEDRAL.0>
1.44458

>  <SCORE.INTRA.POLAR>
0.0127815

>  <SCORE.INTRA.POLAR.0>
-0.0773829

>  <SCORE.INTRA.REPUL>
0

>  <SCORE.INTRA.REPUL.0>
0

>  <SCORE.INTRA.VDW>
-1.79957

>  <SCORE.INTRA.VDW.0>
1.10072

>  <SCORE.INTRA.norm>
0.131281

>  <SCORE.RESTR>
0

>  <SCORE.RESTR.CAVITY>
0

>  <SCORE.RESTR.norm>
0

>  <SCORE.SYSTEM>
0

>  <SCORE.SYSTEM.CONST>
0

>  <SCORE.SYSTEM.DIHEDRAL>
0

>  <SCORE.SYSTEM.norm>
0

>  <SCORE.heavy>
27

>  <SCORE.norm>
-0.886498

$$$$
design_12
 OpenBabel05252019093D

 25 26  0  0  0  0  0  0  0  0999 V2000
   39.9815  -35.9431    1.4813 N   0  0  0  0  0  0  0  0  0  0  0  0
   39.9565  -36.4997    2.5014 C   0  0  0  0  0  0  0  0  0  0  0  0
   39.9052  -37.1991    3.7637 C   0  0  0  0  0  0  0  0  0  0  0  0
   40.1440  -36.5192    4.9320 C   0  0  0  0  0  0  0  0  0  0  0  0
   40.0940  -37.1980    6.1540 C   0  0  0  0  0  0  0  0  0  0  0  0
   39.8113  -38.5408    6.2418 C   0  0  0  0  0  0  0  0  0  0  0  0
   39.7786  -39.1767    7.5659 C   0  0  0  0  0  0  0  0  0  0  0  0
   40.4767  -38.6551    8.4733 O   0  0  0  0  0  0  0  0  0  0  0  0
   38.9927  -40.3285    7.8067 N   0  0  0  0  0  0  0  0  0  0  0  0
   38.9682  -40.9266    9.1102 C   0  0  0  0  0  0  0  0  0  0  0  0
   39.8072  -42.1731    9.1136 C   0  0  0  0  0  0  0  0  0  0  0  0
   39.9267  -42.7041   10.5295 C   0  0  0  0  0  0  0  0  0  0  0  0
   40.7574  -43.9486   10.5484 C   0  0  0  0  0  0  0  0  0  0  0  0
   40.0953  -45.0898    9.8931 N   0  0  0  0  0  0  0  0  0  0  0  0
   40.6386  -45.6962    8.7594 C   0  0  0  0  0  0  0  0  0  0  0  0
   41.7605  -45.2452    8.2684 O   0  0  0  0  0  0  0  0  0  0  0  0
   40.0350  -46.8211    8.0711 C   0  0  0  0  0  0  0  0  0  0  0  0
   40.6139  -47.2806    6.8716 C   0  0  0  0  0  0  0  0  0  0  0  0
   40.1233  -48.3548    6.1707 C   0  0  0  0  0  0  0  0  0  0  0  0
   39.0193  -49.0403    6.6252 C   0  0  0  0  0  0  0  0  0  0  0  0
   38.4263  -48.6240    7.7893 C   0  0  0  0  0  0  0  0  0  0  0  0
   38.9442  -47.5180    8.4955 C   0  0  0  0  0  0  0  0  0  0  0  0
   38.2843  -47.1620    9.6134 F   0  0  0  0  0  0  0  0  0  0  0  0
   39.5755  -39.2068    5.0720 C   0  0  0  0  0  0  0  0  0  0  0  0
   39.6229  -38.5383    3.8453 C   0  0  0  0  0  0  0  0  0  0  0  0
  1  2  3  0  0  0  0
  2  3  1  0  0  0  0
  3  4  2  0  0  0  0
  4  5  1  0  0  0  0
  5  6  2  0  0  0  0
  6  7  1  0  0  0  0
  6 24  1  0  0  0  0
  7  8  2  0  0  0  0
  7  9  1  0  0  0  0
  9 10  1  0  0  0  0
 10 11  1  0  0  0  0
 11 12  1  0  0  0  0
 12 13  1  0  0  0  0
 13 14  1  0  0  0  0
 14 15  1  0  0  0  0
 15 16  2  0  0  0  0
 15 17  1  0  0  0  0
 17 18  2  0  0  0  0
 18 19  1  0  0  0  0
 19 20  2  0  0  0  0
 20 21  1  0  0  0  0
 21 22  2  0  0  0  0
 22 23  1  0  0  0  0
 22 17  1  0  0  0  0
 24 25  2  0  0  0  0
 25  3  1  0  0  0  0
M  END
>  <CHROM.1>
-26.61845938,-103.88487651,172.72457341,179.85505757,-68.66604577,117.59045555
174.74089015,39.81747764,-42.41756330,7.22259010,1.03602575,-1.51874607,-0.90489853

>  <Name>
design_12

>  <RI>
0

>  <Rbt.Current_Directory>
/home/ziqiaoxu/icml18-jtnn/VAEdesign

>  <Rbt.Executable>
rbdock ($Id: //depot/dev/client3/rdock/2013.1/src/exe/rbdock.cxx#4 $)

>  <Rbt.Library>
libRbt.so (2013.1, Build901 2013/11/27)

>  <Rbt.Parameter_File>
/export/apps/rDock/src/rDock_2013.1_src//data/scripts/dock.prm

>  <Rbt.Receptor>
/home/ziqiaoxu/icml18-jtnn/VAEdesign/targets/RdRp-SARS-CoV-2/pocket_docking.prm

>  <SCORE>
-18.8822

>  <SCORE.INTER>
-17.5088

>  <SCORE.INTER.CONST>
1

>  <SCORE.INTER.POLAR>
-1.0198

>  <SCORE.INTER.REPUL>
0

>  <SCORE.INTER.ROT>
7

>  <SCORE.INTER.VDW>
-26.4414

>  <SCORE.INTER.norm>
-0.700351

>  <SCORE.INTRA>
-1.37785

>  <SCORE.INTRA.DIHEDRAL>
1.7603

>  <SCORE.INTRA.DIHEDRAL.0>
3.83621

>  <SCORE.INTRA.POLAR>
0

>  <SCORE.INTRA.POLAR.0>
0

>  <SCORE.INTRA.REPUL>
0

>  <SCORE.INTRA.REPUL.0>
0

>  <SCORE.INTRA.VDW>
-2.258

>  <SCORE.INTRA.VDW.0>
1.13846

>  <SCORE.INTRA.norm>
-0.0551141

>  <SCORE.RESTR>
0.00446839

>  <SCORE.RESTR.CAVITY>
0.00446839

>  <SCORE.RESTR.norm>
0.000178736

>  <SCORE.SYSTEM>
0

>  <SCORE.SYSTEM.CONST>
0

>  <SCORE.SYSTEM.DIHEDRAL>
0

>  <SCORE.SYSTEM.norm>
0

>  <SCORE.heavy>
25

>  <SCORE.norm>
-0.755286

$$$$
design_8
 OpenBabel05252019093D

 24 25  0  0  0  0  0  0  0  0999 V2000
   39.9876  -35.9170    3.4083 N   0  0  0  0  0  0  0  0  0  0  0  0
   39.9658  -37.3318    3.4071 C   0  0  0  0  0  0  0  0  0  0  0  0
   40.0315  -38.0513    2.3889 O   0  0  0  0  0  0  0  0  0  0  0  0
   39.8549  -37.9629    4.7361 C   0  0  0  0  0  0  0  0  0  0  0  0
   39.9178  -37.2286    5.8882 C   0  0  0  0  0  0  0  0  0  0  0  0
   39.8171  -37.8344    7.1526 C   0  0  0  0  0  0  0  0  0  0  0  0
   39.6528  -39.1777    7.2933 C   0  0  0  0  0  0  0  0  0  0  0  0
   39.5667  -39.8841    8.5074 N   0  0  0  0  0  0  0  0  0  0  0  0
   39.4579  -41.2670    8.7309 C   0  0  0  0  0  0  0  0  0  0  0  0
   39.4356  -42.0644    7.7654 O   0  0  0  0  0  0  0  0  0  0  0  0
   39.3733  -41.7247   10.0712 N   0  0  0  0  0  0  0  0  0  0  0  0
   39.2562  -43.1337   10.3282 C   0  0  0  0  0  0  0  0  0  0  0  0
   40.5744  -43.8471   10.1114 C   0  0  0  0  0  0  0  0  0  0  0  0
   40.4456  -45.3282   10.4049 C   0  0  0  0  0  0  0  0  0  0  0  0
   40.6259  -45.6263   11.6007 O   0  0  0  0  0  0  0  0  0  0  0  0
   40.1463  -46.1778    9.3488 N   0  0  0  0  0  0  0  0  0  0  0  0
   39.8629  -46.9822    8.3488 C   0  0  0  0  0  0  0  0  0  0  0  0
   40.4818  -46.7928    7.0717 C   0  0  0  0  0  0  0  0  0  0  0  0
   40.2607  -47.6236    6.0406 C   0  0  0  0  0  0  0  0  0  0  0  0
   39.4076  -48.7195    6.1747 C   0  0  0  0  0  0  0  0  0  0  0  0
   38.7964  -48.9433    7.3661 C   0  0  0  0  0  0  0  0  0  0  0  0
   39.0306  -48.0861    8.4153 C   0  0  0  0  0  0  0  0  0  0  0  0
   39.5902  -39.9107    6.0805 C   0  0  0  0  0  0  0  0  0  0  0  0
   39.6867  -39.3298    4.8555 C   0  0  0  0  0  0  0  0  0  0  0  0
  1  2  1  0  0  0  0
  2  3  2  0  0  0  0
  2  4  1  0  0  0  0
  4  5  2  0  0  0  0
  5  6  1  0  0  0  0
  6  7  2  0  0  0  0
  7  8  1  0  0  0  0
  7 23  1  0  0  0  0
  8  9  1  0  0  0  0
  9 10  2  0  0  0  0
  9 11  1  0  0  0  0
 11 12  1  0  0  0  0
 12 13  1  0  0  0  0
 13 14  1  0  0  0  0
 14 15  2  0  0  0  0
 14 16  1  0  0  0  0
 16 17  1  0  0  0  0
 17 18  2  0  0  0  0
 18 19  1  0  0  0  0
 19 20  2  0  0  0  0
 20 21  1  0  0  0  0
 21 22  2  0  0  0  0
 22 17  1  0  0  0  0
 23 24  2  0  0  0  0
 24  4  1  0  0  0  0
M  END
>  <CHROM.1>
-6.86031931,-176.83610338,74.68564548,179.14830415,-86.97760992,15.57041776
39.80612820,-42.40667839,7.34022269,1.43670992,-1.54821756,-0.52659391

>  <Name>
design_8

>  <RI>
0

>  <Rbt.Current_Directory>
/home/ziqiaoxu/icml18-jtnn/VAEdesign

>  <Rbt.Executable>
rbdock ($Id: //depot/dev/client3/rdock/2013.1/src/exe/rbdock.cxx#4 $)

>  <Rbt.Library>
libRbt.so (2013.1, Build901 2013/11/27)

>  <Rbt.Parameter_File>
/export/apps/rDock/src/rDock_2013.1_src//data/scripts/dock.prm

>  <Rbt.Receptor>
/home/ziqiaoxu/icml18-jtnn/VAEdesign/targets/RdRp-SARS-CoV-2/pocket_docking.prm

>  <SCORE>
-29.892

>  <SCORE.INTER>
-26.0047

>  <SCORE.INTER.CONST>
1

>  <SCORE.INTER.POLAR>
-3.2257

>  <SCORE.INTER.REPUL>
0

>  <SCORE.INTER.ROT>
6

>  <SCORE.INTER.VDW>
-26.4373

>  <SCORE.INTER.norm>
-1.08353

>  <SCORE.INTRA>
-4.28139

>  <SCORE.INTRA.DIHEDRAL>
-7.59229

>  <SCORE.INTRA.DIHEDRAL.0>
13.0397

>  <SCORE.INTRA.POLAR>
0

>  <SCORE.INTRA.POLAR.0>
0

>  <SCORE.INTRA.REPUL>
0

>  <SCORE.INTRA.REPUL.0>
0

>  <SCORE.INTRA.VDW>
-0.485246

>  <SCORE.INTRA.VDW.0>
1.24723

>  <SCORE.INTRA.norm>
-0.178391

>  <SCORE.RESTR>
0.394032

>  <SCORE.RESTR.CAVITY>
0.394032

>  <SCORE.RESTR.norm>
0.016418

>  <SCORE.SYSTEM>
0

>  <SCORE.SYSTEM.CONST>
0

>  <SCORE.SYSTEM.DIHEDRAL>
0

>  <SCORE.SYSTEM.norm>
0

>  <SCORE.heavy>
24

>  <SCORE.norm>
-1.2455

$$$$
design_5
 OpenBabel05252019093D

 26 29  0  0  0  0  0  0  0  0999 V2000
   40.8171  -41.9550    8.0917 O   0  0  0  0  0  0  0  0  0  0  0  0
   40.2700  -41.1464    8.9062 C   0  0  0  0  0  0  0  0  0  0  0  0
   39.6116  -41.7845   10.0819 C   0  0  0  0  0  0  0  0  0  0  0  0
   39.8467  -43.2840    9.9639 C   0  0  0  0  0  0  0  0  0  0  0  0
   40.6774  -43.9440   10.8440 C   0  0  0  0  0  0  0  0  0  0  0  0
   40.6040  -45.5390   10.2538 S   0  0  0  0  0  0  0  0  0  0  0  0
   39.5400  -45.2814    8.9432 C   0  0  0  0  0  0  0  0  0  0  0  0
   39.0124  -46.2442    7.9550 C   0  0  0  0  0  0  0  0  0  0  0  0
   39.4052  -47.5431    7.9677 C   0  0  0  0  0  0  0  0  0  0  0  0
   38.8758  -48.4124    7.0104 C   0  0  0  0  0  0  0  0  0  0  0  0
   37.9798  -47.9499    6.0862 C   0  0  0  0  0  0  0  0  0  0  0  0
   37.6205  -46.6474    6.1156 N   0  0  0  0  0  0  0  0  0  0  0  0
   38.1214  -45.7939    7.0320 C   0  0  0  0  0  0  0  0  0  0  0  0
   39.2957  -43.9838    9.0279 N   0  0  0  0  0  0  0  0  0  0  0  0
   40.2854  -39.7568    8.7140 N   0  0  0  0  0  0  0  0  0  0  0  0
   40.9133  -39.1105    7.5902 C   0  0  0  0  0  0  0  0  0  0  0  0
   40.1247  -39.3990    6.3458 C   0  0  2  0  0  0  0  0  0  0  0  0
   40.9181  -39.3816    5.0810 C   0  0  0  0  0  0  0  0  0  0  0  0
   41.2259  -38.0804    4.5737 N   0  0  1  0  0  0  0  0  0  0  0  0
   41.8017  -38.1753    3.2998 C   0  0  0  0  0  0  0  0  0  0  0  0
   41.7153  -37.0209    2.3888 C   0  0  0  0  0  0  0  0  0  0  0  0
   41.1769  -35.7575    3.0013 C   0  0  0  0  0  0  0  0  0  0  0  0
   39.9428  -36.1415    3.7807 C   0  0  0  0  0  0  0  0  0  0  0  0
   40.4226  -37.0161    4.9488 C   0  0  1  0  0  0  0  0  0  0  0  0
   39.2247  -37.3157    5.7863 C   0  0  0  0  0  0  0  0  0  0  0  0
   39.0245  -38.6114    6.1510 O   0  0  0  0  0  0  0  0  0  0  0  0
  1  2  2  0  0  0  0
  2  3  1  0  0  0  0
  2 15  1  0  0  0  0
  3  4  1  0  0  0  0
  4  5  2  0  0  0  0
  5  6  1  0  0  0  0
  6  7  1  0  0  0  0
  7  8  1  0  0  0  0
  7 14  2  0  0  0  0
  8  9  2  0  0  0  0
  9 10  1  0  0  0  0
 10 11  2  0  0  0  0
 11 12  1  0  0  0  0
 12 13  2  0  0  0  0
 13  8  1  0  0  0  0
 14  4  1  0  0  0  0
 15 16  1  0  0  0  0
 17 16  1  1  0  0  0
 17 18  1  0  0  0  0
 19 18  1  6  0  0  0
 19 20  1  0  0  0  0
 20 21  1  0  0  0  0
 21 22  1  0  0  0  0
 22 23  1  0  0  0  0
 24 23  1  0  0  0  0
 24 25  1  0  0  0  0
 24 19  1  6  0  0  0
 25 26  1  0  0  0  0
 26 17  1  0  0  0  0
M  END
>  <CHROM.1>
1.86288733,110.84170341,-2.87172260,70.09843018,-152.35987225,39.98880092
-41.80576938,7.04254673,-2.14265131,-1.30117925,-0.98481409

>  <Name>
design_5

>  <RI>
0

>  <Rbt.Current_Directory>
/home/ziqiaoxu/icml18-jtnn/VAEdesign

>  <Rbt.Executable>
rbdock ($Id: //depot/dev/client3/rdock/2013.1/src/exe/rbdock.cxx#4 $)

>  <Rbt.Library>
libRbt.so (2013.1, Build901 2013/11/27)

>  <Rbt.Parameter_File>
/export/apps/rDock/src/rDock_2013.1_src//data/scripts/dock.prm

>  <Rbt.Receptor>
/home/ziqiaoxu/icml18-jtnn/VAEdesign/targets/RdRp-SARS-CoV-2/pocket_docking.prm

>  <SCORE>
-18.222

>  <SCORE.INTER>
-19.75

>  <SCORE.INTER.CONST>
1

>  <SCORE.INTER.POLAR>
-1.09207

>  <SCORE.INTER.REPUL>
0

>  <SCORE.INTER.ROT>
5

>  <SCORE.INTER.VDW>
-26.437

>  <SCORE.INTER.norm>
-0.759617

>  <SCORE.INTRA>
1.528

>  <SCORE.INTRA.DIHEDRAL>
1.68691

>  <SCORE.INTRA.DIHEDRAL.0>
3.39858

>  <SCORE.INTRA.POLAR>
0

>  <SCORE.INTRA.POLAR.0>
0

>  <SCORE.INTRA.REPUL>
0

>  <SCORE.INTRA.REPUL.0>
0

>  <SCORE.INTRA.VDW>
0.684542

>  <SCORE.INTRA.VDW.0>
-1.40791

>  <SCORE.INTRA.norm>
0.0587691

>  <SCORE.RESTR>
0

>  <SCORE.RESTR.CAVITY>
0

>  <SCORE.RESTR.norm>
0

>  <SCORE.SYSTEM>
0

>  <SCORE.SYSTEM.CONST>
0

>  <SCORE.SYSTEM.DIHEDRAL>
0

>  <SCORE.SYSTEM.norm>
0

>  <SCORE.heavy>
26

>  <SCORE.norm>
-0.700848

$$$$
design_7
 OpenBabel05252019093D

 22 23  0  0  0  0  0  0  0  0999 V2000
   40.0799  -38.3478    2.8490 C   0  0  0  0  0  0  0  0  0  0  0  0
   40.4250  -37.3509    4.3203 S   0  0  0  0  0  0  0  0  0  0  0  0
   40.2959  -38.4030    5.7611 C   0  0  0  0  0  0  0  0  0  0  0  0
   40.4950  -37.8999    7.0242 C   0  0  0  0  0  0  0  0  0  0  0  0
   40.4014  -38.6928    8.1640 C   0  0  0  0  0  0  0  0  0  0  0  0
   40.1030  -40.0246    8.0778 C   0  0  0  0  0  0  0  0  0  0  0  0
   39.9641  -40.9045    9.1600 N   0  0  0  0  0  0  0  0  0  0  0  0
   40.1717  -42.2808    9.1522 C   0  0  0  0  0  0  0  0  0  0  0  0
   40.5368  -42.8376    8.0570 O   0  0  0  0  0  0  0  0  0  0  0  0
   39.9917  -43.1449   10.3520 C   0  0  0  0  0  0  0  0  0  0  0  0
   41.1294  -44.4824   10.4675 S   0  0  0  0  0  0  0  0  0  0  0  0
   41.1420  -45.0846   11.8413 O   0  0  0  0  0  0  0  0  0  0  0  0
   42.5051  -43.9633   10.0886 O   0  0  0  0  0  0  0  0  0  0  0  0
   40.6205  -45.7071    9.3102 C   0  0  0  0  0  0  0  0  0  0  0  0
   41.4056  -45.9632    8.2217 C   0  0  0  0  0  0  0  0  0  0  0  0
   41.0197  -46.9339    7.2881 C   0  0  0  0  0  0  0  0  0  0  0  0
   39.8495  -47.6463    7.4454 C   0  0  0  0  0  0  0  0  0  0  0  0
   39.4017  -48.6859    6.4781 C   0  0  0  0  0  0  0  0  0  0  0  0
   39.0734  -47.3688    8.5542 C   0  0  0  0  0  0  0  0  0  0  0  0
   39.4559  -46.3994    9.4893 C   0  0  0  0  0  0  0  0  0  0  0  0
   39.9039  -40.5161    6.7714 C   0  0  0  0  0  0  0  0  0  0  0  0
   39.9952  -39.7419    5.6530 C   0  0  0  0  0  0  0  0  0  0  0  0
  1  2  1  0  0  0  0
  2  3  1  0  0  0  0
  3  4  2  0  0  0  0
  4  5  1  0  0  0  0
  5  6  2  0  0  0  0
  6  7  1  0  0  0  0
  6 21  1  0  0  0  0
  7  8  1  0  0  0  0
  8  9  2  0  0  0  0
  8 10  1  0  0  0  0
 10 11  1  0  0  0  0
 11 12  2  0  0  0  0
 11 13  2  0  0  0  0
 11 14  1  0  0  0  0
 14 15  2  0  0  0  0
 15 16  1  0  0  0  0
 16 17  2  0  0  0  0
 17 18  1  0  0  0  0
 17 19  1  0  0  0  0
 19 20  2  0  0  0  0
 20 14  1  0  0  0  0
 21 22  2  0  0  0  0
 22  3  1  0  0  0  0
M  END
>  <CHROM.1>
-179.24415843,-153.32328951,-144.58329220,164.89230015,112.27778994,40.42722819
-42.64432907,7.90462793,1.67525799,-1.37657667,-0.33577869

>  <Name>
design_7

>  <RI>
0

>  <Rbt.Current_Directory>
/home/ziqiaoxu/icml18-jtnn/VAEdesign

>  <Rbt.Executable>
rbdock ($Id: //depot/dev/client3/rdock/2013.1/src/exe/rbdock.cxx#4 $)

>  <Rbt.Library>
libRbt.so (2013.1, Build901 2013/11/27)

>  <Rbt.Parameter_File>
/export/apps/rDock/src/rDock_2013.1_src//data/scripts/dock.prm

>  <Rbt.Receptor>
/home/ziqiaoxu/icml18-jtnn/VAEdesign/targets/RdRp-SARS-CoV-2/pocket_docking.prm

>  <SCORE>
-17.9942

>  <SCORE.INTER>
-18.9772

>  <SCORE.INTER.CONST>
1

>  <SCORE.INTER.POLAR>
-0.864899

>  <SCORE.INTER.REPUL>
0

>  <SCORE.INTER.ROT>
5

>  <SCORE.INTER.VDW>
-26.4366

>  <SCORE.INTER.norm>
-0.862601

>  <SCORE.INTRA>
0.978805

>  <SCORE.INTRA.DIHEDRAL>
1.95853

>  <SCORE.INTRA.DIHEDRAL.0>
5.88181

>  <SCORE.INTRA.POLAR>
0

>  <SCORE.INTRA.POLAR.0>
0

>  <SCORE.INTRA.REPUL>
0

>  <SCORE.INTRA.REPUL.0>
0

>  <SCORE.INTRA.VDW>
-0.000461813

>  <SCORE.INTRA.VDW.0>
-1.42876

>  <SCORE.INTRA.norm>
0.0444911

>  <SCORE.RESTR>
0.00417809

>  <SCORE.RESTR.CAVITY>
0.00417809

>  <SCORE.RESTR.norm>
0.000189913

>  <SCORE.SYSTEM>
0

>  <SCORE.SYSTEM.CONST>
0

>  <SCORE.SYSTEM.DIHEDRAL>
0

>  <SCORE.SYSTEM.norm>
0

>  <SCORE.heavy>
22

>  <SCORE.norm>
-0.81792

$$$$
design_16
 OpenBabel05252019093D

 25 27  0  0  0  0  0  0  0  0999 V2000
   39.7057  -48.2233    6.6894 C   0  0  0  0  0  0  0  0  0  0  0  0
   40.0241  -47.2061    7.7244 C   0  0  0  0  0  0  0  0  0  0  0  0
   41.1292  -46.3926    7.6031 C   0  0  0  0  0  0  0  0  0  0  0  0
   41.4340  -45.4378    8.5652 C   0  0  0  0  0  0  0  0  0  0  0  0
   40.6587  -45.2480    9.6875 C   0  0  0  0  0  0  0  0  0  0  0  0
   41.0145  -44.0444   10.9580 S   0  0  0  0  0  0  0  0  0  0  0  0
   40.0247  -42.5634   10.8534 C   0  0  0  0  0  0  0  0  0  0  0  0
   39.4897  -42.2697    9.4653 C   0  0  0  0  0  0  0  0  0  0  0  0
   39.5677  -40.8863    9.1082 N   0  0  0  0  0  0  0  0  0  0  0  0
   39.7617  -40.3782    7.7897 C   0  0  0  0  0  0  0  0  0  0  0  0
   39.8774  -41.1986    6.8742 O   0  0  0  0  0  0  0  0  0  0  0  0
   39.8144  -38.9980    7.5786 N   0  0  0  0  0  0  0  0  0  0  0  0
   40.0138  -38.3404    6.3402 C   0  0  0  0  0  0  0  0  0  0  0  0
   39.7996  -36.9545    6.2889 C   0  0  0  0  0  0  0  0  0  0  0  0
   39.9710  -36.1978    5.1693 C   0  0  0  0  0  0  0  0  0  0  0  0
   40.3790  -36.8071    4.0040 C   0  0  0  0  0  0  0  0  0  0  0  0
   40.6014  -38.1573    4.0024 C   0  0  0  0  0  0  0  0  0  0  0  0
   41.0246  -38.8419    2.8310 N   0  0  0  0  0  0  0  0  0  0  0  0
   41.0098  -38.3853    1.5655 C   0  0  0  0  0  0  0  0  0  0  0  0
   41.4958  -39.3506    0.7582 N   0  0  0  0  0  0  0  0  0  0  0  0
   41.7921  -40.3621    1.5429 N   0  0  0  0  0  0  0  0  0  0  0  0
   41.5105  -40.0694    2.8164 N   0  0  0  0  0  0  0  0  0  0  0  0
   40.4161  -38.9010    5.1676 C   0  0  0  0  0  0  0  0  0  0  0  0
   39.5391  -46.0765    9.8040 C   0  0  0  0  0  0  0  0  0  0  0  0
   39.2417  -47.0214    8.8469 C   0  0  0  0  0  0  0  0  0  0  0  0
  1  2  1  0  0  0  0
  2  3  2  0  0  0  0
  3  4  1  0  0  0  0
  4  5  2  0  0  0  0
  5  6  1  0  0  0  0
  5 24  1  0  0  0  0
  6  7  1  0  0  0  0
  7  8  1  0  0  0  0
  8  9  1  0  0  0  0
  9 10  1  0  0  0  0
 10 11  2  0  0  0  0
 10 12  1  0  0  0  0
 12 13  1  0  0  0  0
 13 14  2  0  0  0  0
 14 15  1  0  0  0  0
 15 16  2  0  0  0  0
 16 17  1  0  0  0  0
 17 18  1  0  0  0  0
 17 23  2  0  0  0  0
 18 19  1  0  0  0  0
 19 20  2  0  0  0  0
 20 21  1  0  0  0  0
 21 22  2  0  0  0  0
 22 18  1  0  0  0  0
 23 13  1  0  0  0  0
 24 25  2  0  0  0  0
 25  2  1  0  0  0  0
M  END
>  <CHROM.1>
101.49373251,-24.50519883,-138.20359853,148.50869331,168.85360325,-14.24883058
40.40101361,-41.66030949,6.71396055,-1.87730484,1.40000403,-0.36656039

>  <Name>
design_16

>  <RI>
0

>  <Rbt.Current_Directory>
/home/ziqiaoxu/icml18-jtnn/VAEdesign

>  <Rbt.Executable>
rbdock ($Id: //depot/dev/client3/rdock/2013.1/src/exe/rbdock.cxx#4 $)

>  <Rbt.Library>
libRbt.so (2013.1, Build901 2013/11/27)

>  <Rbt.Parameter_File>
/export/apps/rDock/src/rDock_2013.1_src//data/scripts/dock.prm

>  <Rbt.Receptor>
/home/ziqiaoxu/icml18-jtnn/VAEdesign/targets/RdRp-SARS-CoV-2/pocket_docking.prm

>  <SCORE>
-19.4665

>  <SCORE.INTER>
-19.0836

>  <SCORE.INTER.CONST>
1

>  <SCORE.INTER.POLAR>
-1.26471

>  <SCORE.INTER.REPUL>
0.050541

>  <SCORE.INTER.ROT>
6

>  <SCORE.INTER.VDW>
-26.4363

>  <SCORE.INTER.norm>
-0.763345

>  <SCORE.INTRA>
-0.585652

>  <SCORE.INTRA.DIHEDRAL>
-2.73934

>  <SCORE.INTRA.DIHEDRAL.0>
13.1644

>  <SCORE.INTRA.POLAR>
0

>  <SCORE.INTRA.POLAR.0>
0

>  <SCORE.INTRA.REPUL>
0

>  <SCORE.INTRA.REPUL.0>
0

>  <SCORE.INTRA.VDW>
0.784018

>  <SCORE.INTRA.VDW.0>
-1.8258

>  <SCORE.INTRA.norm>
-0.0234261

>  <SCORE.RESTR>
0.202812

>  <SCORE.RESTR.CAVITY>
0.202812

>  <SCORE.RESTR.norm>
0.00811248

>  <SCORE.SYSTEM>
0

>  <SCORE.SYSTEM.CONST>
0

>  <SCORE.SYSTEM.DIHEDRAL>
0

>  <SCORE.SYSTEM.norm>
0

>  <SCORE.heavy>
25

>  <SCORE.norm>
-0.778659

$$$$
design_3
 OpenBabel05252019093D

 26 29  0  0  0  0  0  0  0  0999 V2000
   40.5871  -42.8726    8.2453 O   0  0  0  0  0  0  0  0  0  0  0  0
   40.7256  -43.3244    9.4207 C   0  0  0  0  0  0  0  0  0  0  0  0
   41.6717  -44.4837    9.6736 C   0  0  0  0  0  0  0  0  0  0  0  0
   41.5847  -45.4585    8.6138 N   0  0  0  0  0  0  0  0  0  0  0  0
   42.4851  -45.7952    7.6875 C   0  0  0  0  0  0  0  0  0  0  0  0
   43.7937  -45.1710    7.3859 C   0  0  0  0  0  0  0  0  0  0  0  0
   44.2446  -44.1889    8.2405 C   0  0  0  0  0  0  0  0  0  0  0  0
   45.4635  -43.5627    8.0761 C   0  0  0  0  0  0  0  0  0  0  0  0
   46.2449  -43.9413    7.0166 C   0  0  0  0  0  0  0  0  0  0  0  0
   45.7729  -44.9339    6.1642 C   0  0  0  0  0  0  0  0  0  0  0  0
   44.5742  -45.5090    6.3767 N   0  0  0  0  0  0  0  0  0  0  0  0
   41.9619  -46.8229    6.9728 N   0  0  0  0  0  0  0  0  0  0  0  0
   40.7472  -47.1448    7.4205 C   0  0  0  0  0  0  0  0  0  0  0  0
   39.8492  -48.1036    7.0062 C   0  0  0  0  0  0  0  0  0  0  0  0
   38.6343  -48.2279    7.6437 C   0  0  0  0  0  0  0  0  0  0  0  0
   38.3921  -47.3469    8.6967 C   0  0  0  0  0  0  0  0  0  0  0  0
   39.2943  -46.4046    9.0926 C   0  0  0  0  0  0  0  0  0  0  0  0
   40.4990  -46.2867    8.4567 C   0  0  0  0  0  0  0  0  0  0  0  0
   40.0056  -42.7473   10.4914 N   0  0  0  0  0  0  0  0  0  0  0  0
   39.1194  -41.6386   10.3806 C   0  0  0  0  0  0  0  0  0  0  0  0
   39.4837  -40.7170    9.2992 C   0  0  0  0  0  0  0  0  0  0  0  0
   40.5047  -39.7898    9.4608 C   0  0  0  0  0  0  0  0  0  0  0  0
   40.8866  -38.9635    8.4266 C   0  0  0  0  0  0  0  0  0  0  0  0
   40.2713  -39.0353    7.2172 C   0  0  0  0  0  0  0  0  0  0  0  0
   39.2564  -39.9529    7.0525 C   0  0  0  0  0  0  0  0  0  0  0  0
   38.8942  -40.7534    8.0730 N   0  0  0  0  0  0  0  0  0  0  0  0
  1  2  2  0  0  0  0
  2  3  1  0  0  0  0
  2 19  1  0  0  0  0
  3  4  1  0  0  0  0
  4  5  1  0  0  0  0
  5  6  1  0  0  0  0
  5 12  2  0  0  0  0
  6  7  2  0  0  0  0
  7  8  1  0  0  0  0
  8  9  2  0  0  0  0
  9 10  1  0  0  0  0
 10 11  2  0  0  0  0
 11  6  1  0  0  0  0
 12 13  1  0  0  0  0
 13 14  2  0  0  0  0
 14 15  1  0  0  0  0
 15 16  2  0  0  0  0
 16 17  1  0  0  0  0
 17 18  2  0  0  0  0
 18  4  1  0  0  0  0
 18 13  1  0  0  0  0
 19 20  1  0  0  0  0
 20 21  1  0  0  0  0
 21 22  2  0  0  0  0
 22 23  1  0  0  0  0
 23 24  2  0  0  0  0
 24 25  1  0  0  0  0
 25 26  2  0  0  0  0
 26 21  1  0  0  0  0
M  END
>  <CHROM.1>
-39.80473206,112.05262514,7.35047247,-29.51761300,-79.08442193,41.33032583
-43.94182647,8.19484995,1.93005947,0.26674013,0.09928687

>  <Name>
design_3

>  <RI>
0

>  <Rbt.Current_Directory>
/home/ziqiaoxu/icml18-jtnn/VAEdesign

>  <Rbt.Executable>
rbdock ($Id: //depot/dev/client3/rdock/2013.1/src/exe/rbdock.cxx#4 $)

>  <Rbt.Library>
libRbt.so (2013.1, Build901 2013/11/27)

>  <Rbt.Parameter_File>
/export/apps/rDock/src/rDock_2013.1_src//data/scripts/dock.prm

>  <Rbt.Receptor>
/home/ziqiaoxu/icml18-jtnn/VAEdesign/targets/RdRp-SARS-CoV-2/pocket_docking.prm

>  <SCORE>
-17.0121

>  <SCORE.INTER>
-18.2443

>  <SCORE.INTER.CONST>
1

>  <SCORE.INTER.POLAR>
-0.650181

>  <SCORE.INTER.REPUL>
0

>  <SCORE.INTER.ROT>
5

>  <SCORE.INTER.VDW>
-26.4337

>  <SCORE.INTER.norm>
-0.701704

>  <SCORE.INTRA>
1.23225

>  <SCORE.INTRA.DIHEDRAL>
-0.239955

>  <SCORE.INTRA.DIHEDRAL.0>
5.89637

>  <SCORE.INTRA.POLAR>
0

>  <SCORE.INTRA.POLAR.0>
0

>  <SCORE.INTRA.REPUL>
0

>  <SCORE.INTRA.REPUL.0>
0

>  <SCORE.INTRA.VDW>
1.35223

>  <SCORE.INTRA.VDW.0>
-3.04814

>  <SCORE.INTRA.norm>
0.0473942

>  <SCORE.RESTR>
0

>  <SCORE.RESTR.CAVITY>
0

>  <SCORE.RESTR.norm>
0

>  <SCORE.SYSTEM>
0

>  <SCORE.SYSTEM.CONST>
0

>  <SCORE.SYSTEM.DIHEDRAL>
0

>  <SCORE.SYSTEM.norm>
0

>  <SCORE.heavy>
26

>  <SCORE.norm>
-0.65431

$$$$
design_12
 OpenBabel05252019093D

 24 25  0  0  0  0  0  0  0  0999 V2000
   38.7003  -49.0996    6.3222 C   0  0  0  0  0  0  0  0  0  0  0  0
   39.3544  -48.1040    7.1906 C   0  0  0  0  0  0  0  0  0  0  0  0
   38.7641  -47.7494    8.4037 C   0  0  0  0  0  0  0  0  0  0  0  0
   39.3553  -46.8321    9.2228 C   0  0  0  0  0  0  0  0  0  0  0  0
   40.5330  -46.2544    8.8578 C   0  0  0  0  0  0  0  0  0  0  0  0
   41.1743  -45.2639    9.7548 C   0  0  0  0  0  0  0  0  0  0  0  0
   40.2901  -44.2484   10.2288 N   0  0  0  0  0  0  0  0  0  0  0  0
   40.4101  -42.8972    9.7421 C   0  0  0  0  0  0  0  0  0  0  0  0
   41.2733  -42.5707    8.9054 O   0  0  0  0  0  0  0  0  0  0  0  0
   39.4388  -41.9272   10.3071 C   0  0  0  0  0  0  0  0  0  0  0  0
   38.5975  -41.4099    9.1554 C   0  0  0  0  0  0  0  0  0  0  0  0
   39.0209  -40.0804    8.8740 N   0  0  0  0  0  0  0  0  0  0  0  0
   39.1978  -39.6829    7.4953 C   0  0  0  0  0  0  0  0  0  0  0  0
   38.9673  -40.5267    6.5869 O   0  0  0  0  0  0  0  0  0  0  0  0
   39.6190  -38.3791    7.1964 N   0  0  0  0  0  0  0  0  0  0  0  0
   39.8026  -37.8808    5.8934 C   0  0  0  0  0  0  0  0  0  0  0  0
   39.9009  -36.5835    5.5488 C   0  0  0  0  0  0  0  0  0  0  0  0
   40.0536  -36.1793    4.2301 C   0  0  0  0  0  0  0  0  0  0  0  0
   40.1066  -37.1217    3.2465 C   0  0  0  0  0  0  0  0  0  0  0  0
   40.2719  -36.6908    1.8280 C   0  0  0  0  0  0  0  0  0  0  0  0
   40.0102  -38.4562    3.5572 C   0  0  0  0  0  0  0  0  0  0  0  0
   39.8614  -38.8330    4.8506 C   0  0  0  0  0  0  0  0  0  0  0  0
   41.1206  -46.6015    7.6597 C   0  0  0  0  0  0  0  0  0  0  0  0
   40.5329  -47.5239    6.8287 C   0  0  0  0  0  0  0  0  0  0  0  0
  1  2  1  0  0  0  0
  2  3  2  0  0  0  0
  3  4  1  0  0  0  0
  4  5  2  0  0  0  0
  5  6  1  0  0  0  0
  5 23  1  0  0  0  0
  6  7  1  0  0  0  0
  7  8  1  0  0  0  0
  8  9  2  0  0  0  0
  8 10  1  0  0  0  0
 10 11  1  0  0  0  0
 11 12  1  0  0  0  0
 12 13  1  0  0  0  0
 13 14  2  0  0  0  0
 13 15  1  0  0  0  0
 15 16  1  0  0  0  0
 16 17  2  0  0  0  0
 17 18  1  0  0  0  0
 18 19  2  0  0  0  0
 19 20  1  0  0  0  0
 19 21  1  0  0  0  0
 21 22  2  0  0  0  0
 22 16  1  0  0  0  0
 23 24  2  0  0  0  0
 24  2  1  0  0  0  0
M  END
>  <CHROM.1>
-48.50467202,-108.68680591,-117.81467668,-105.97377374,136.29651162,163.65209052
39.84181400,-42.10355334,7.19661396,-1.94108860,1.56737956,-0.00636816

>  <Name>
design_12

>  <RI>
0

>  <Rbt.Current_Directory>
/home/ziqiaoxu/icml18-jtnn/VAEdesign

>  <Rbt.Executable>
rbdock ($Id: //depot/dev/client3/rdock/2013.1/src/exe/rbdock.cxx#4 $)

>  <Rbt.Library>
libRbt.so (2013.1, Build901 2013/11/27)

>  <Rbt.Parameter_File>
/export/apps/rDock/src/rDock_2013.1_src//data/scripts/dock.prm

>  <Rbt.Receptor>
/home/ziqiaoxu/icml18-jtnn/VAEdesign/targets/RdRp-SARS-CoV-2/pocket_docking.prm

>  <SCORE>
-18.572

>  <SCORE.INTER>
-21.1384

>  <SCORE.INTER.CONST>
1

>  <SCORE.INTER.POLAR>
-1.86775

>  <SCORE.INTER.REPUL>
0.0488948

>  <SCORE.INTER.ROT>
6

>  <SCORE.INTER.VDW>
-26.4325

>  <SCORE.INTER.norm>
-0.880766

>  <SCORE.INTRA>
2.50026

>  <SCORE.INTRA.DIHEDRAL>
5.58249

>  <SCORE.INTRA.DIHEDRAL.0>
6.02249

>  <SCORE.INTRA.POLAR>
0

>  <SCORE.INTRA.POLAR.0>
0

>  <SCORE.INTRA.REPUL>
0

>  <SCORE.INTRA.REPUL.0>
0

>  <SCORE.INTRA.VDW>
-0.290982

>  <SCORE.INTRA.VDW.0>
0.198741

>  <SCORE.INTRA.norm>
0.104178

>  <SCORE.RESTR>
0.0661217

>  <SCORE.RESTR.CAVITY>
0.0661217

>  <SCORE.RESTR.norm>
0.00275507

>  <SCORE.SYSTEM>
0

>  <SCORE.SYSTEM.CONST>
0

>  <SCORE.SYSTEM.DIHEDRAL>
0

>  <SCORE.SYSTEM.norm>
0

>  <SCORE.heavy>
24

>  <SCORE.norm>
-0.773833

$$$$
design_10
 OpenBabel05252019093D

 27 30  0  0  0  0  0  0  0  0999 V2000
   46.0642  -43.3433    8.0734 C   0  0  0  0  0  0  0  0  0  0  0  0
   44.8952  -44.2269    7.7233 C   0  0  0  0  0  0  0  0  0  0  0  0
   44.7058  -44.8837    6.5665 N   0  0  0  0  0  0  0  0  0  0  0  0
   43.5641  -45.5635    6.6146 N   0  0  0  0  0  0  0  0  0  0  0  0
   42.9946  -45.3533    7.8149 C   0  0  0  0  0  0  0  0  0  0  0  0
   41.7225  -45.9146    8.2898 C   0  0  0  0  0  0  0  0  0  0  0  0
   41.2198  -45.5796    9.5246 C   0  0  0  0  0  0  0  0  0  0  0  0
   40.0414  -46.0944    9.9792 C   0  0  0  0  0  0  0  0  0  0  0  0
   39.3339  -46.9692    9.1907 C   0  0  0  0  0  0  0  0  0  0  0  0
   39.7950  -47.3331    7.9517 C   0  0  0  0  0  0  0  0  0  0  0  0
   39.0807  -48.2639    7.0578 C   0  0  0  0  0  0  0  0  0  0  0  0
   38.3661  -47.4891    6.0703 N   0  0  0  0  0  0  0  0  0  0  0  0
   37.3365  -46.5907    6.4638 C   0  0  0  0  0  0  0  0  0  0  0  0
   37.0123  -46.4379    7.6675 O   0  0  0  0  0  0  0  0  0  0  0  0
   36.6011  -45.7925    5.4456 C   0  0  0  0  0  0  0  0  0  0  0  0
   36.7707  -44.3481    5.6952 C   0  0  0  0  0  0  0  0  0  0  0  0
   35.6529  -43.5215    5.7608 C   0  0  0  0  0  0  0  0  0  0  0  0
   35.7962  -42.1744    5.9932 C   0  0  0  0  0  0  0  0  0  0  0  0
   37.0656  -41.6390    6.1632 C   0  0  0  0  0  0  0  0  0  0  0  0
   38.1696  -42.4520    6.0991 C   0  0  0  0  0  0  0  0  0  0  0  0
   38.0246  -43.8062    5.8654 C   0  0  0  0  0  0  0  0  0  0  0  0
   39.4195  -41.8768    6.2748 O   0  0  0  0  0  0  0  0  0  0  0  0
   39.6256  -40.5011    6.0250 C   0  0  0  0  0  0  0  0  0  0  0  0
   38.4947  -39.6675    6.6078 C   0  0  0  0  0  0  0  0  0  0  0  0
   37.2459  -40.2809    6.4000 O   0  0  0  0  0  0  0  0  0  0  0  0
   41.0080  -46.7901    7.5081 C   0  0  0  0  0  0  0  0  0  0  0  0
   43.8267  -44.5311    8.4790 N   0  0  0  0  0  0  0  0  0  0  0  0
  1  2  1  0  0  0  0
  2  3  2  0  0  0  0
  3  4  1  0  0  0  0
  4  5  1  0  0  0  0
  5  6  1  0  0  0  0
  5 27  2  0  0  0  0
  6  7  2  0  0  0  0
  7  8  1  0  0  0  0
  8  9  2  0  0  0  0
  9 10  1  0  0  0  0
 10 11  1  0  0  0  0
 10 26  2  0  0  0  0
 11 12  1  0  0  0  0
 12 13  1  0  0  0  0
 13 14  2  0  0  0  0
 13 15  1  0  0  0  0
 15 16  1  0  0  0  0
 16 17  2  0  0  0  0
 17 18  1  0  0  0  0
 18 19  2  0  0  0  0
 19 20  1  0  0  0  0
 20 21  2  0  0  0  0
 20 22  1  0  0  0  0
 21 16  1  0  0  0  0
 22 23  1  0  0  0  0
 23 24  1  0  0  0  0
 24 25  1  0  0  0  0
 25 19  1  0  0  0  0
 26  6  1  0  0  0  0
 27  2  1  0  0  0  0
M  END
>  <CHROM.1>
-177.40306488,99.81406097,-62.61378475,-119.99636400,-128.72369444,39.78118691
-44.46053826,7.06518043,-0.37599086,-0.19629775,-0.19676932

>  <Name>
design_10

>  <RI>
0

>  <Rbt.Current_Directory>
/home/ziqiaoxu/icml18-jtnn/VAEdesign

>  <Rbt.Executable>
rbdock ($Id: //depot/dev/client3/rdock/2013.1/src/exe/rbdock.cxx#4 $)

>  <Rbt.Library>
libRbt.so (2013.1, Build901 2013/11/27)

>  <Rbt.Parameter_File>
/export/apps/rDock/src/rDock_2013.1_src//data/scripts/dock.prm

>  <Rbt.Receptor>
/home/ziqiaoxu/icml18-jtnn/VAEdesign/targets/RdRp-SARS-CoV-2/pocket_docking.prm

>  <SCORE>
-19.5193

>  <SCORE.INTER>
-19.1818

>  <SCORE.INTER.CONST>
1

>  <SCORE.INTER.POLAR>
-0.929329

>  <SCORE.INTER.REPUL>
0

>  <SCORE.INTER.ROT>
5

>  <SCORE.INTER.VDW>
-26.4221

>  <SCORE.INTER.norm>
-0.710438

>  <SCORE.INTRA>
-0.337446

>  <SCORE.INTRA.DIHEDRAL>
0.0283251

>  <SCORE.INTRA.DIHEDRAL.0>
3.97744

>  <SCORE.INTRA.POLAR>
0

>  <SCORE.INTRA.POLAR.0>
0

>  <SCORE.INTRA.REPUL>
0

>  <SCORE.INTRA.REPUL.0>
0

>  <SCORE.INTRA.VDW>
-0.351608

>  <SCORE.INTRA.VDW.0>
-1.68618

>  <SCORE.INTRA.norm>
-0.012498

>  <SCORE.RESTR>
0

>  <SCORE.RESTR.CAVITY>
0

>  <SCORE.RESTR.norm>
0

>  <SCORE.SYSTEM>
0

>  <SCORE.SYSTEM.CONST>
0

>  <SCORE.SYSTEM.DIHEDRAL>
0

>  <SCORE.SYSTEM.norm>
0

>  <SCORE.heavy>
27

>  <SCORE.norm>
-0.722936

$$$$
design_16
 OpenBabel05252019093D

 23 24  0  0  0  0  0  0  0  0999 V2000
   44.9699  -43.8158    8.6288 C   0  0  0  0  0  0  0  0  0  0  0  0
   43.7976  -44.6399    8.3007 C   0  0  0  0  0  0  0  0  0  0  0  0
   42.6909  -44.5978    9.0962 C   0  0  0  0  0  0  0  0  0  0  0  0
   41.5704  -45.3501    8.8307 C   0  0  0  0  0  0  0  0  0  0  0  0
   40.2108  -45.2097    9.9261 S   0  0  0  0  0  0  0  0  0  0  0  0
   39.7123  -43.5035    9.9674 C   0  0  0  0  0  0  0  0  0  0  0  0
   39.0648  -46.0069    9.3717 O   0  0  0  0  0  0  0  0  0  0  0  0
   40.5870  -45.6913   11.3127 O   0  0  0  0  0  0  0  0  0  0  0  0
   41.5806  -46.1527    7.7425 C   0  0  0  0  0  0  0  0  0  0  0  0
   42.7032  -46.2068    6.9200 C   0  0  0  0  0  0  0  0  0  0  0  0
   43.8146  -45.4623    7.1808 C   0  0  0  0  0  0  0  0  0  0  0  0
   44.9641  -45.5033    6.3528 N   0  0  0  0  0  0  0  0  0  0  0  0
   45.5032  -44.5405    5.5068 C   0  0  0  0  0  0  0  0  0  0  0  0
   45.0022  -43.4204    5.3532 O   0  0  0  0  0  0  0  0  0  0  0  0
   46.7401  -44.8586    4.7444 C   0  0  0  0  0  0  0  0  0  0  0  0
   46.4674  -46.3554    3.7871 S   0  0  0  0  0  0  0  0  0  0  0  0
   45.3646  -46.1135    2.4292 C   0  0  0  0  0  0  0  0  0  0  0  0
   44.0858  -45.6538    2.6252 C   0  0  0  0  0  0  0  0  0  0  0  0
   43.2118  -45.4565    1.5497 C   0  0  0  0  0  0  0  0  0  0  0  0
   43.6686  -45.7368    0.2798 C   0  0  0  0  0  0  0  0  0  0  0  0
   44.9553  -46.2027    0.0481 C   0  0  0  0  0  0  0  0  0  0  0  0
   45.7752  -46.3787    1.1518 C   0  0  0  0  0  0  0  0  0  0  0  0
   47.1467  -46.8740    0.9231 C   0  0  0  0  0  0  0  0  0  0  0  0
  1  2  1  0  0  0  0
  2  3  2  0  0  0  0
  3  4  1  0  0  0  0
  4  5  1  0  0  0  0
  4  9  2  0  0  0  0
  5  6  1  0  0  0  0
  5  7  2  0  0  0  0
  5  8  2  0  0  0  0
  9 10  1  0  0  0  0
 10 11  2  0  0  0  0
 11 12  1  0  0  0  0
 11  2  1  0  0  0  0
 12 13  1  0  0  0  0
 13 14  2  0  0  0  0
 13 15  1  0  0  0  0
 15 16  1  0  0  0  0
 16 17  1  0  0  0  0
 17 18  2  0  0  0  0
 18 19  1  0  0  0  0
 19 20  2  0  0  0  0
 20 21  1  0  0  0  0
 21 22  2  0  0  0  0
 22 23  1  0  0  0  0
 22 17  1  0  0  0  0
M  END
>  <CHROM.1>
57.99800285,-68.80257007,55.39440804,71.16207202,-58.16607562,43.56064662
-45.40486861,5.95419937,-2.12995632,-0.16100194,-1.78608920

>  <Name>
design_16

>  <RI>
0

>  <Rbt.Current_Directory>
/home/ziqiaoxu/icml18-jtnn/VAEdesign

>  <Rbt.Executable>
rbdock ($Id: //depot/dev/client3/rdock/2013.1/src/exe/rbdock.cxx#4 $)

>  <Rbt.Library>
libRbt.so (2013.1, Build901 2013/11/27)

>  <Rbt.Parameter_File>
/export/apps/rDock/src/rDock_2013.1_src//data/scripts/dock.prm

>  <Rbt.Receptor>
/home/ziqiaoxu/icml18-jtnn/VAEdesign/targets/RdRp-SARS-CoV-2/pocket_docking.prm

>  <SCORE>
-16.9414

>  <SCORE.INTER>
-19.0568

>  <SCORE.INTER.CONST>
1

>  <SCORE.INTER.POLAR>
-0.894427

>  <SCORE.INTER.REPUL>
0

>  <SCORE.INTER.ROT>
5

>  <SCORE.INTER.VDW>
-26.4157

>  <SCORE.INTER.norm>
-0.828556

>  <SCORE.INTRA>
2.11535

>  <SCORE.INTRA.DIHEDRAL>
11.2423

>  <SCORE.INTRA.DIHEDRAL.0>
4.6345

>  <SCORE.INTRA.POLAR>
0

>  <SCORE.INTRA.POLAR.0>
0

>  <SCORE.INTRA.REPUL>
0

>  <SCORE.INTRA.REPUL.0>
0

>  <SCORE.INTRA.VDW>
-3.50578

>  <SCORE.INTRA.VDW.0>
0.505519

>  <SCORE.INTRA.norm>
0.0919716

>  <SCORE.RESTR>
0

>  <SCORE.RESTR.CAVITY>
0

>  <SCORE.RESTR.norm>
0

>  <SCORE.SYSTEM>
0

>  <SCORE.SYSTEM.CONST>
0

>  <SCORE.SYSTEM.DIHEDRAL>
0

>  <SCORE.SYSTEM.norm>
0

>  <SCORE.heavy>
23

>  <SCORE.norm>
-0.736584

$$$$
design_14
 OpenBabel05252019093D

 26 28  0  0  0  0  0  0  0  0999 V2000
   39.8061  -36.3399    4.8294 N   0  0  0  0  0  0  0  0  0  0  0  0
   39.9808  -37.4074    3.9090 C   0  0  0  0  0  0  0  0  0  0  0  0
   39.0978  -38.3128    3.8811 O   0  0  0  0  0  0  0  0  0  0  0  0
   41.1459  -37.4424    3.0345 C   0  0  0  0  0  0  0  0  0  0  0  0
   41.9938  -36.3978    2.8928 C   0  0  0  0  0  0  0  0  0  0  0  0
   43.0974  -36.4583    2.0495 C   0  0  0  0  0  0  0  0  0  0  0  0
   43.3382  -37.6004    1.3421 C   0  0  0  0  0  0  0  0  0  0  0  0
   42.4797  -38.7012    1.4672 C   0  0  0  0  0  0  0  0  0  0  0  0
   42.8402  -39.8855    0.6626 C   0  0  0  0  0  0  0  0  0  0  0  0
   41.8903  -40.9333    0.9243 N   0  0  0  0  0  0  0  0  0  0  0  0
   42.2101  -42.2178    1.4201 C   0  0  0  0  0  0  0  0  0  0  0  0
   43.3874  -42.5627    1.6544 O   0  0  0  0  0  0  0  0  0  0  0  0
   41.1773  -43.1719    1.6699 N   0  0  0  0  0  0  0  0  0  0  0  0
   41.5157  -44.4867    2.1620 C   0  0  0  0  0  0  0  0  0  0  0  0
   41.4433  -44.5425    3.6722 C   0  0  0  0  0  0  0  0  0  0  0  0
   42.0590  -45.8632    4.1122 C   0  0  0  0  0  0  0  0  0  0  0  0
   41.8951  -46.0992    5.5125 N   0  0  0  0  0  0  0  0  0  0  0  0
   42.7386  -45.5818    6.5605 C   0  0  0  0  0  0  0  0  0  0  0  0
   41.8544  -45.5526    7.7888 C   0  0  0  0  0  0  0  0  0  0  0  0
   40.8271  -46.5911    7.4843 C   0  0  0  0  0  0  0  0  0  0  0  0
   39.9341  -47.2121    8.3270 C   0  0  0  0  0  0  0  0  0  0  0  0
   39.0588  -48.1631    7.8111 C   0  0  0  0  0  0  0  0  0  0  0  0
   39.0886  -48.4755    6.4748 C   0  0  0  0  0  0  0  0  0  0  0  0
   39.9923  -47.8363    5.6632 C   0  0  0  0  0  0  0  0  0  0  0  0
   40.8902  -46.8754    6.1369 C   0  0  0  0  0  0  0  0  0  0  0  0
   41.4038  -38.6122    2.3034 C   0  0  0  0  0  0  0  0  0  0  0  0
  1  2  1  0  0  0  0
  2  3  2  0  0  0  0
  2  4  1  0  0  0  0
  4  5  2  0  0  0  0
  5  6  1  0  0  0  0
  6  7  2  0  0  0  0
  7  8  1  0  0  0  0
  8  9  1  0  0  0  0
  8 26  2  0  0  0  0
  9 10  1  0  0  0  0
 10 11  1  0  0  0  0
 11 12  2  0  0  0  0
 11 13  1  0  0  0  0
 13 14  1  0  0  0  0
 14 15  1  0  0  0  0
 15 16  1  0  0  0  0
 16 17  1  0  0  0  0
 17 18  1  0  0  0  0
 18 19  1  0  0  0  0
 19 20  1  0  0  0  0
 20 21  2  0  0  0  0
 21 22  1  0  0  0  0
 22 23  2  0  0  0  0
 23 24  1  0  0  0  0
 24 25  2  0  0  0  0
 25 17  1  0  0  0  0
 25 20  1  0  0  0  0
 26  4  1  0  0  0  0
M  END
>  <CHROM.1>
-10.57444456,178.54892978,-121.70028263,93.76968807,-169.59332806,-172.72280380
-83.31703013,41.34814555,-42.39958132,3.95557044,1.35785908,1.05991698,-0.23591780

>  <Name>
design_14

>  <RI>
0

>  <Rbt.Current_Directory>
/home/ziqiaoxu/icml18-jtnn/VAEdesign

>  <Rbt.Executable>
rbdock ($Id: //depot/dev/client3/rdock/2013.1/src/exe/rbdock.cxx#4 $)

>  <Rbt.Library>
libRbt.so (2013.1, Build901 2013/11/27)

>  <Rbt.Parameter_File>
/export/apps/rDock/src/rDock_2013.1_src//data/scripts/dock.prm

>  <Rbt.Receptor>
/home/ziqiaoxu/icml18-jtnn/VAEdesign/targets/RdRp-SARS-CoV-2/pocket_docking.prm

>  <SCORE>
-22.8026

>  <SCORE.INTER>
-23.2801

>  <SCORE.INTER.CONST>
1

>  <SCORE.INTER.POLAR>
-2.88881

>  <SCORE.INTER.REPUL>
0.110714

>  <SCORE.INTER.ROT>
7

>  <SCORE.INTER.VDW>
-26.4117

>  <SCORE.INTER.norm>
-0.895387

>  <SCORE.INTRA>
0.477484

>  <SCORE.INTRA.DIHEDRAL>
0.951172

>  <SCORE.INTRA.DIHEDRAL.0>
5.60593

>  <SCORE.INTRA.POLAR>
0

>  <SCORE.INTRA.POLAR.0>
0

>  <SCORE.INTRA.REPUL>
0

>  <SCORE.INTRA.REPUL.0>
0

>  <SCORE.INTRA.VDW>
0.00189826

>  <SCORE.INTRA.VDW.0>
-1.2994

>  <SCORE.INTRA.norm>
0.0183648

>  <SCORE.RESTR>
0

>  <SCORE.RESTR.CAVITY>
0

>  <SCORE.RESTR.norm>
0

>  <SCORE.SYSTEM>
0

>  <SCORE.SYSTEM.CONST>
0

>  <SCORE.SYSTEM.DIHEDRAL>
0

>  <SCORE.SYSTEM.norm>
0

>  <SCORE.heavy>
26

>  <SCORE.norm>
-0.877022

$$$$
design_12
 OpenBabel05252019093D

 23 25  0  0  0  0  0  0  0  0999 V2000
   40.8658  -45.0522   10.7911 O   0  0  0  0  0  0  0  0  0  0  0  0
   40.6789  -45.5991    9.6873 C   0  0  0  0  0  0  0  0  0  0  0  0
   39.5029  -46.2425    9.3147 N   0  0  0  0  0  0  0  0  0  0  0  0
   38.3298  -46.8673    8.9891 C   0  0  0  0  0  0  0  0  0  0  0  0
   38.4039  -47.7563    7.7485 C   0  0  0  0  0  0  0  0  0  0  0  0
   38.8211  -47.0538    6.5193 C   0  0  0  0  0  0  0  0  0  0  0  0
   37.9119  -45.9162    6.1590 C   0  0  0  0  0  0  0  0  0  0  0  0
   36.6331  -46.1613    5.7299 C   0  0  0  0  0  0  0  0  0  0  0  0
   35.7733  -45.0792    5.4436 C   0  0  0  0  0  0  0  0  0  0  0  0
   36.1884  -43.7841    5.5867 C   0  0  0  0  0  0  0  0  0  0  0  0
   37.4787  -43.5556    6.0197 C   0  0  0  0  0  0  0  0  0  0  0  0
   38.3138  -44.6142    6.2961 C   0  0  0  0  0  0  0  0  0  0  0  0
   41.7999  -45.5644    8.7197 C   0  0  0  0  0  0  0  0  0  0  0  0
   41.9177  -46.3106    7.5977 C   0  0  0  0  0  0  0  0  0  0  0  0
   43.0214  -46.1857    6.8057 N   0  0  0  0  0  0  0  0  0  0  0  0
   44.0364  -45.3443    7.0695 C   0  0  0  0  0  0  0  0  0  0  0  0
   45.1421  -45.2239    6.2454 C   0  0  0  0  0  0  0  0  0  0  0  0
   46.1681  -44.3428    6.5309 C   0  0  0  0  0  0  0  0  0  0  0  0
   46.0447  -43.5771    7.6832 C   0  0  0  0  0  0  0  0  0  0  0  0
   44.9138  -43.7360    8.4790 C   0  0  0  0  0  0  0  0  0  0  0  0
   43.9238  -44.5921    8.1975 N   0  0  0  0  0  0  0  0  0  0  0  0
   42.8655  -44.6784    9.0048 C   0  0  0  0  0  0  0  0  0  0  0  0
   42.7346  -43.9885   10.0631 O   0  0  0  0  0  0  0  0  0  0  0  0
  1  2  2  0  0  0  0
  2  3  1  0  0  0  0
  2 13  1  0  0  0  0
  3  4  1  0  0  0  0
  4  5  1  0  0  0  0
  5  6  1  0  0  0  0
  6  7  1  0  0  0  0
  7  8  2  0  0  0  0
  8  9  1  0  0  0  0
  9 10  2  0  0  0  0
 10 11  1  0  0  0  0
 11 12  2  0  0  0  0
 12  7  1  0  0  0  0
 13 14  2  0  0  0  0
 14 15  1  0  0  0  0
 15 16  2  0  0  0  0
 16 17  1  0  0  0  0
 17 18  2  0  0  0  0
 18 19  1  0  0  0  0
 19 20  2  0  0  0  0
 20 21  1  0  0  0  0
 21 22  1  0  0  0  0
 21 16  1  0  0  0  0
 22 23  2  0  0  0  0
 22 13  1  0  0  0  0
M  END
>  <CHROM.1>
-163.17673956,-58.39431332,-58.64334280,-69.00938275,165.59877451,40.92326966
-45.27933774,7.65731223,0.15018876,0.17393871,1.80301074

>  <Name>
design_12

>  <RI>
0

>  <Rbt.Current_Directory>
/home/ziqiaoxu/icml18-jtnn/VAEdesign

>  <Rbt.Executable>
rbdock ($Id: //depot/dev/client3/rdock/2013.1/src/exe/rbdock.cxx#4 $)

>  <Rbt.Library>
libRbt.so (2013.1, Build901 2013/11/27)

>  <Rbt.Parameter_File>
/export/apps/rDock/src/rDock_2013.1_src//data/scripts/dock.prm

>  <Rbt.Receptor>
/home/ziqiaoxu/icml18-jtnn/VAEdesign/targets/RdRp-SARS-CoV-2/pocket_docking.prm

>  <SCORE>
-21.3373

>  <SCORE.INTER>
-19.4765

>  <SCORE.INTER.CONST>
1

>  <SCORE.INTER.POLAR>
-1.0198

>  <SCORE.INTER.REPUL>
0.000338278

>  <SCORE.INTER.ROT>
5

>  <SCORE.INTER.VDW>
-26.4109

>  <SCORE.INTER.norm>
-0.846806

>  <SCORE.INTRA>
-1.86076

>  <SCORE.INTRA.DIHEDRAL>
-5.49422

>  <SCORE.INTRA.DIHEDRAL.0>
7.45131

>  <SCORE.INTRA.POLAR>
0

>  <SCORE.INTRA.POLAR.0>
0

>  <SCORE.INTRA.REPUL>
0

>  <SCORE.INTRA.REPUL.0>
0

>  <SCORE.INTRA.VDW>
0.886348

>  <SCORE.INTRA.VDW.0>
0.299619

>  <SCORE.INTRA.norm>
-0.0809028

>  <SCORE.RESTR>
0

>  <SCORE.RESTR.CAVITY>
0

>  <SCORE.RESTR.norm>
0

>  <SCORE.SYSTEM>
0

>  <SCORE.SYSTEM.CONST>
0

>  <SCORE.SYSTEM.DIHEDRAL>
0

>  <SCORE.SYSTEM.norm>
0

>  <SCORE.heavy>
23

>  <SCORE.norm>
-0.927708

$$$$
design_9
 OpenBabel05252019093D

 24 25  0  0  0  0  0  0  0  0999 V2000
   34.5347  -40.1414    6.5601 C   0  0  0  0  0  0  0  0  0  0  0  0
   35.5898  -41.2276    6.5629 C   0  0  0  0  0  0  0  0  0  0  0  0
   36.6576  -40.9562    7.1336 O   0  0  0  0  0  0  0  0  0  0  0  0
   35.3314  -42.4561    5.9432 N   0  0  0  0  0  0  0  0  0  0  0  0
   36.1765  -43.5829    5.8373 C   0  0  0  0  0  0  0  0  0  0  0  0
   35.7887  -44.8348    5.4183 C   0  0  0  0  0  0  0  0  0  0  0  0
   36.7173  -45.8817    5.3461 C   0  0  0  0  0  0  0  0  0  0  0  0
   38.0394  -45.7133    5.6845 C   0  0  0  0  0  0  0  0  0  0  0  0
   39.2062  -47.0351    5.6182 S   0  0  0  0  0  0  0  0  0  0  0  0
   40.8092  -46.6000    4.9387 C   0  0  0  0  0  0  0  0  0  0  0  0
   41.6412  -45.7319    5.7791 C   0  0  0  0  0  0  0  0  0  0  0  0
   41.9922  -44.6230    5.3386 O   0  0  0  0  0  0  0  0  0  0  0  0
   42.0542  -46.1147    7.0683 N   0  0  0  0  0  0  0  0  0  0  0  0
   42.8370  -45.3671    7.9395 C   0  0  0  0  0  0  0  0  0  0  0  0
   44.1224  -45.0335    7.6159 C   0  0  0  0  0  0  0  0  0  0  0  0
   44.6929  -45.4612    6.3412 C   0  0  0  0  0  0  0  0  0  0  0  0
   44.9268  -44.2825    8.4797 C   0  0  0  0  0  0  0  0  0  0  0  0
   44.4073  -43.8686    9.6893 C   0  0  0  0  0  0  0  0  0  0  0  0
   45.2794  -43.0680   10.5983 C   0  0  0  0  0  0  0  0  0  0  0  0
   43.1290  -44.1909   10.0295 C   0  0  0  0  0  0  0  0  0  0  0  0
   42.3432  -44.9448    9.1457 C   0  0  0  0  0  0  0  0  0  0  0  0
   40.9745  -45.2798    9.5285 C   0  0  0  0  0  0  0  0  0  0  0  0
   38.4286  -44.4705    6.1020 C   0  0  0  0  0  0  0  0  0  0  0  0
   37.5261  -43.4438    6.1744 C   0  0  0  0  0  0  0  0  0  0  0  0
  1  2  1  0  0  0  0
  2  3  2  0  0  0  0
  2  4  1  0  0  0  0
  4  5  1  0  0  0  0
  5  6  2  0  0  0  0
  6  7  1  0  0  0  0
  7  8  2  0  0  0  0
  8  9  1  0  0  0  0
  8 23  1  0  0  0  0
  9 10  1  0  0  0  0
 10 11  1  0  0  0  0
 11 12  2  0  0  0  0
 11 13  1  0  0  0  0
 13 14  1  0  0  0  0
 14 15  2  0  0  0  0
 15 16  1  0  0  0  0
 15 17  1  0  0  0  0
 17 18  2  0  0  0  0
 18 19  1  0  0  0  0
 18 20  1  0  0  0  0
 20 21  2  0  0  0  0
 21 22  1  0  0  0  0
 21 14  1  0  0  0  0
 23 24  2  0  0  0  0
 24  5  1  0  0  0  0
M  END
>  <CHROM.1>
168.24269573,138.00371998,70.45941900,-119.84646720,-63.19579652,40.06638169
-44.45545874,6.95378575,-3.12014158,0.36732036,-2.53522673

>  <Name>
design_9

>  <RI>
0

>  <Rbt.Current_Directory>
/home/ziqiaoxu/icml18-jtnn/VAEdesign

>  <Rbt.Executable>
rbdock ($Id: //depot/dev/client3/rdock/2013.1/src/exe/rbdock.cxx#4 $)

>  <Rbt.Library>
libRbt.so (2013.1, Build901 2013/11/27)

>  <Rbt.Parameter_File>
/export/apps/rDock/src/rDock_2013.1_src//data/scripts/dock.prm

>  <Rbt.Receptor>
/home/ziqiaoxu/icml18-jtnn/VAEdesign/targets/RdRp-SARS-CoV-2/pocket_docking.prm

>  <SCORE>
-18.9984

>  <SCORE.INTER>
-18.1464

>  <SCORE.INTER.CONST>
1

>  <SCORE.INTER.POLAR>
-0.628855

>  <SCORE.INTER.REPUL>
0

>  <SCORE.INTER.ROT>
5

>  <SCORE.INTER.VDW>
-26.4083

>  <SCORE.INTER.norm>
-0.756101

>  <SCORE.INTRA>
-0.851999

>  <SCORE.INTRA.DIHEDRAL>
-2.13639

>  <SCORE.INTRA.DIHEDRAL.0>
16.347

>  <SCORE.INTRA.POLAR>
0

>  <SCORE.INTRA.POLAR.0>
0

>  <SCORE.INTRA.REPUL>
0

>  <SCORE.INTRA.REPUL.0>
0

>  <SCORE.INTRA.VDW>
0.216198

>  <SCORE.INTRA.VDW.0>
-2.46239

>  <SCORE.INTRA.norm>
-0.0354999

>  <SCORE.RESTR>
0

>  <SCORE.RESTR.CAVITY>
0

>  <SCORE.RESTR.norm>
0

>  <SCORE.SYSTEM>
0

>  <SCORE.SYSTEM.CONST>
0

>  <SCORE.SYSTEM.DIHEDRAL>
0

>  <SCORE.SYSTEM.norm>
0

>  <SCORE.heavy>
24

>  <SCORE.norm>
-0.791601

$$$$
design_7
 OpenBabel05252019093D

 24 26  0  0  0  0  0  0  0  0999 V2000
   39.3378  -48.8457    6.4443 C   0  0  0  0  0  0  0  0  0  0  0  0
   39.6139  -47.8241    7.4949 C   0  0  0  0  0  0  0  0  0  0  0  0
   38.7446  -47.5941    8.5429 C   0  0  0  0  0  0  0  0  0  0  0  0
   39.0055  -46.6765    9.4766 N   0  0  0  0  0  0  0  0  0  0  0  0
   40.1459  -45.9138    9.4480 C   0  0  0  0  0  0  0  0  0  0  0  0
   40.2816  -45.0780   10.3941 O   0  0  0  0  0  0  0  0  0  0  0  0
   41.0355  -46.0975    8.4390 C   0  0  0  0  0  0  0  0  0  0  0  0
   42.2682  -45.3175    8.2886 C   0  0  0  0  0  0  0  0  0  0  0  0
   42.2916  -44.2074    8.9283 O   0  0  0  0  0  0  0  0  0  0  0  0
   43.3613  -45.6890    7.5352 N   0  0  0  0  0  0  0  0  0  0  0  0
   44.5914  -45.0154    7.3144 C   0  0  0  0  0  0  0  0  0  0  0  0
   45.1962  -44.9547    6.0876 C   0  0  0  0  0  0  0  0  0  0  0  0
   46.4077  -44.2765    5.9259 C   0  0  0  0  0  0  0  0  0  0  0  0
   46.9768  -43.6739    7.0211 C   0  0  0  0  0  0  0  0  0  0  0  0
   46.3578  -43.7534    8.2049 N   0  0  0  0  0  0  0  0  0  0  0  0
   45.2000  -44.3828    8.4365 C   0  0  0  0  0  0  0  0  0  0  0  0
   44.5741  -44.4656    9.6250 O   0  0  0  0  0  0  0  0  0  0  0  0
   44.9557  -44.5605   10.9147 C   0  0  0  0  0  0  0  0  0  0  0  0
   46.2430  -45.0420   11.1399 C   0  0  0  0  0  0  0  0  0  0  0  0
   46.7189  -45.1739   12.4060 C   0  0  0  0  0  0  0  0  0  0  0  0
   45.9666  -44.8440   13.5138 C   0  0  0  0  0  0  0  0  0  0  0  0
   44.6962  -44.3698   13.2650 C   0  0  0  0  0  0  0  0  0  0  0  0
   44.1866  -44.2254   11.9937 C   0  0  0  0  0  0  0  0  0  0  0  0
   40.7525  -47.0611    7.4675 C   0  0  0  0  0  0  0  0  0  0  0  0
  1  2  1  0  0  0  0
  2  3  2  0  0  0  0
  3  4  1  0  0  0  0
  4  5  1  0  0  0  0
  5  6  2  0  0  0  0
  5  7  1  0  0  0  0
  7  8  1  0  0  0  0
  7 24  2  0  0  0  0
  8  9  2  0  0  0  0
  8 10  1  0  0  0  0
 10 11  1  0  0  0  0
 11 12  2  0  0  0  0
 12 13  1  0  0  0  0
 13 14  2  0  0  0  0
 14 15  1  0  0  0  0
 15 16  2  0  0  0  0
 16 17  1  0  0  0  0
 16 11  1  0  0  0  0
 17 18  1  0  0  0  0
 18 19  2  0  0  0  0
 19 20  1  0  0  0  0
 20 21  2  0  0  0  0
 21 22  1  0  0  0  0
 22 23  2  0  0  0  0
 23 18  1  0  0  0  0
 24  2  1  0  0  0  0
M  END
>  <CHROM.1>
-18.96376424,-138.11832095,145.37937449,-21.48531310,43.23521187,-45.37937244
9.09623853,-2.80079120,0.38445244,1.48248347

>  <Name>
design_7

>  <RI>
0

>  <Rbt.Current_Directory>
/home/ziqiaoxu/icml18-jtnn/VAEdesign

>  <Rbt.Executable>
rbdock ($Id: //depot/dev/client3/rdock/2013.1/src/exe/rbdock.cxx#4 $)

>  <Rbt.Library>
libRbt.so (2013.1, Build901 2013/11/27)

>  <Rbt.Parameter_File>
/export/apps/rDock/src/rDock_2013.1_src//data/scripts/dock.prm

>  <Rbt.Receptor>
/home/ziqiaoxu/icml18-jtnn/VAEdesign/targets/RdRp-SARS-CoV-2/pocket_docking.prm

>  <SCORE>
-15.9025

>  <SCORE.INTER>
-20.0622

>  <SCORE.INTER.CONST>
1

>  <SCORE.INTER.POLAR>
-0.933097

>  <SCORE.INTER.REPUL>
0.0236678

>  <SCORE.INTER.ROT>
4

>  <SCORE.INTER.VDW>
-26.408

>  <SCORE.INTER.norm>
-0.835925

>  <SCORE.INTRA>
4.15969

>  <SCORE.INTRA.DIHEDRAL>
7.97332

>  <SCORE.INTRA.DIHEDRAL.0>
1.54129

>  <SCORE.INTRA.POLAR>
0.0868394

>  <SCORE.INTRA.POLAR.0>
-0.0868394

>  <SCORE.INTRA.REPUL>
-0.076803

>  <SCORE.INTRA.REPUL.0>
0.076803

>  <SCORE.INTRA.VDW>
0.261793

>  <SCORE.INTRA.VDW.0>
-1.25176

>  <SCORE.INTRA.norm>
0.17332

>  <SCORE.RESTR>
0

>  <SCORE.RESTR.CAVITY>
0

>  <SCORE.RESTR.norm>
0

>  <SCORE.SYSTEM>
0

>  <SCORE.SYSTEM.CONST>
0

>  <SCORE.SYSTEM.DIHEDRAL>
0

>  <SCORE.SYSTEM.norm>
0

>  <SCORE.heavy>
24

>  <SCORE.norm>
-0.662605

$$$$
design_14
 OpenBabel05252019093D

 24 26  0  0  0  0  0  0  0  0999 V2000
   37.7809  -46.0143    4.6385 C   0  0  0  0  0  0  0  0  0  0  0  0
   39.1694  -46.3247    4.7422 N   0  0  0  0  0  0  0  0  0  0  0  0
   39.6686  -47.4042    5.4235 C   0  0  0  0  0  0  0  0  0  0  0  0
   38.6817  -48.6298    6.2625 S   0  0  0  0  0  0  0  0  0  0  0  0
   38.5658  -48.3148    8.0286 C   0  0  0  0  0  0  0  0  0  0  0  0
   39.0449  -46.9547    8.3456 C   0  0  0  0  0  0  0  0  0  0  0  0
   38.7020  -45.9679    7.6109 O   0  0  0  0  0  0  0  0  0  0  0  0
   39.8847  -46.7463    9.4702 N   0  0  0  0  0  0  0  0  0  0  0  0
   40.3291  -45.3705    9.7152 C   0  0  0  0  0  0  0  0  0  0  0  0
   41.6286  -45.1587    9.0303 C   0  0  0  0  0  0  0  0  0  0  0  0
   41.9688  -45.7910    7.8563 C   0  0  0  0  0  0  0  0  0  0  0  0
   43.1932  -45.5740    7.2226 C   0  0  0  0  0  0  0  0  0  0  0  0
   44.1181  -44.7092    7.7542 C   0  0  0  0  0  0  0  0  0  0  0  0
   45.4035  -44.4449    7.1227 C   0  0  0  0  0  0  0  0  0  0  0  0
   45.7614  -45.1990    5.9821 N   0  0  0  0  0  0  0  0  0  0  0  0
   46.2034  -43.5783    7.5470 O   0  0  0  0  0  0  0  0  0  0  0  0
   43.7674  -44.0726    8.9436 C   0  0  0  0  0  0  0  0  0  0  0  0
   42.5615  -44.2833    9.5720 C   0  0  0  0  0  0  0  0  0  0  0  0
   40.9892  -47.3026    5.2779 N   0  0  0  0  0  0  0  0  0  0  0  0
   41.3044  -46.2459    4.5628 N   0  0  0  0  0  0  0  0  0  0  0  0
   40.1527  -45.6016    4.2066 C   0  0  0  0  0  0  0  0  0  0  0  0
   40.1716  -44.3786    3.3894 C   0  0  0  0  0  0  0  0  0  0  0  0
   41.1383  -44.0550    2.3597 C   0  0  0  0  0  0  0  0  0  0  0  0
   41.3911  -43.4617    3.7005 C   0  0  0  0  0  0  0  0  0  0  0  0
  1  2  1  0  0  0  0
  2  3  1  0  0  0  0
  3  4  1  0  0  0  0
  3 19  2  0  0  0  0
  4  5  1  0  0  0  0
  5  6  1  0  0  0  0
  6  7  2  0  0  0  0
  6  8  1  0  0  0  0
  8  9  1  0  0  0  0
  9 10  1  0  0  0  0
 10 11  2  0  0  0  0
 11 12  1  0  0  0  0
 12 13  2  0  0  0  0
 13 14  1  0  0  0  0
 13 17  1  0  0  0  0
 14 15  1  0  0  0  0
 14 16  2  0  0  0  0
 17 18  2  0  0  0  0
 18 10  1  0  0  0  0
 19 20  1  0  0  0  0
 20 21  2  0  0  0  0
 21 22  1  0  0  0  0
 21  2  1  0  0  0  0
 22 23  1  0  0  0  0
 23 24  1  0  0  0  0
 24 22  1  0  0  0  0
M  END
>  <CHROM.1>
-98.36325620,13.11554441,43.40314840,-91.93924168,31.89075484,-5.83097823
-147.28388908,41.17711854,-45.80999313,6.58209777,-3.00216651,0.48346440
1.77609655

>  <Name>
design_14

>  <RI>
0

>  <Rbt.Current_Directory>
/home/ziqiaoxu/icml18-jtnn/VAEdesign

>  <Rbt.Executable>
rbdock ($Id: //depot/dev/client3/rdock/2013.1/src/exe/rbdock.cxx#4 $)

>  <Rbt.Library>
libRbt.so (2013.1, Build901 2013/11/27)

>  <Rbt.Parameter_File>
/export/apps/rDock/src/rDock_2013.1_src//data/scripts/dock.prm

>  <Rbt.Receptor>
/home/ziqiaoxu/icml18-jtnn/VAEdesign/targets/RdRp-SARS-CoV-2/pocket_docking.prm

>  <SCORE>
-22.9552

>  <SCORE.INTER>
-21.5352

>  <SCORE.INTER.CONST>
1

>  <SCORE.INTER.POLAR>
-2.21493

>  <SCORE.INTER.REPUL>
0

>  <SCORE.INTER.ROT>
7

>  <SCORE.INTER.VDW>
-26.4044

>  <SCORE.INTER.norm>
-0.897299

>  <SCORE.INTRA>
-1.42007

>  <SCORE.INTRA.DIHEDRAL>
1.77987

>  <SCORE.INTRA.DIHEDRAL.0>
8.74044

>  <SCORE.INTRA.POLAR>
0

>  <SCORE.INTRA.POLAR.0>
0

>  <SCORE.INTRA.REPUL>
0

>  <SCORE.INTRA.REPUL.0>
0

>  <SCORE.INTRA.VDW>
-2.31

>  <SCORE.INTRA.VDW.0>
-1.18765

>  <SCORE.INTRA.norm>
-0.0591695

>  <SCORE.RESTR>
0

>  <SCORE.RESTR.CAVITY>
0

>  <SCORE.RESTR.norm>
0

>  <SCORE.SYSTEM>
0

>  <SCORE.SYSTEM.CONST>
0

>  <SCORE.SYSTEM.DIHEDRAL>
0

>  <SCORE.SYSTEM.norm>
0

>  <SCORE.heavy>
24

>  <SCORE.norm>
-0.956468

$$$$
design_2
 OpenBabel05252019093D

 25 26  0  0  0  0  0  0  0  0999 V2000
   41.5260  -36.2057    2.8465 C   0  0  0  0  0  0  0  0  0  0  0  0
   40.2489  -35.9678    3.6458 C   0  0  0  0  0  0  0  0  0  0  0  0
   40.2723  -36.7293    4.8602 N   0  0  0  0  0  0  0  0  0  0  0  0
   39.7392  -38.0410    4.9797 C   0  0  0  0  0  0  0  0  0  0  0  0
   39.2009  -38.6042    3.9792 O   0  0  0  0  0  0  0  0  0  0  0  0
   39.7602  -38.8158    6.2033 C   0  0  0  0  0  0  0  0  0  0  0  0
   39.0680  -40.0156    6.2020 C   0  0  0  0  0  0  0  0  0  0  0  0
   39.1241  -40.7577    7.3349 C   0  0  0  0  0  0  0  0  0  0  0  0
   39.8335  -40.3909    8.4974 C   0  0  0  0  0  0  0  0  0  0  0  0
   39.8649  -41.2898    9.5363 N   0  0  0  0  0  0  0  0  0  0  0  0
   39.8955  -42.1640   10.5468 C   0  0  0  0  0  0  0  0  0  0  0  0
   39.4613  -42.0467   11.7256 O   0  0  0  0  0  0  0  0  0  0  0  0
   40.5747  -43.5054   10.2098 C   0  0  0  0  0  0  0  0  0  0  0  0
   39.6227  -44.5565   10.1067 N   0  0  0  0  0  0  0  0  0  0  0  0
   39.7890  -45.6604    9.2220 C   0  0  0  0  0  0  0  0  0  0  0  0
   40.8472  -45.6726    8.5231 O   0  0  0  0  0  0  0  0  0  0  0  0
   38.7721  -46.7177    9.1374 C   0  0  0  0  0  0  0  0  0  0  0  0
   38.3905  -47.0763    7.7033 C   0  0  0  0  0  0  0  0  0  0  0  0
   38.0045  -45.8631    6.9452 C   0  0  0  0  0  0  0  0  0  0  0  0
   38.0454  -46.1859    5.4543 C   0  0  0  0  0  0  0  0  0  0  0  0
   39.5162  -46.4239    5.1463 C   0  0  0  0  0  0  0  0  0  0  0  0
   39.9967  -47.6911    5.8073 C   0  0  0  0  0  0  0  0  0  0  0  0
   39.4655  -47.9431    7.1580 C   0  0  0  0  0  0  0  0  0  0  0  0
   40.5112  -39.1591    8.4291 C   0  0  0  0  0  0  0  0  0  0  0  0
   40.4558  -38.4076    7.2885 C   0  0  0  0  0  0  0  0  0  0  0  0
  1  2  1  0  0  0  0
  2  3  1  0  0  0  0
  3  4  1  0  0  0  0
  4  5  2  0  0  0  0
  4  6  1  0  0  0  0
  6  7  2  0  0  0  0
  7  8  1  0  0  0  0
  8  9  2  0  0  0  0
  9 10  1  0  0  0  0
  9 24  1  0  0  0  0
 10 11  1  0  0  0  0
 11 12  2  0  0  0  0
 11 13  1  0  0  0  0
 13 14  1  0  0  0  0
 14 15  1  0  0  0  0
 15 16  2  0  0  0  0
 15 17  1  0  0  0  0
 17 18  1  0  0  0  0
 18 19  1  0  0  0  0
 19 20  1  0  0  0  0
 20 21  1  0  0  0  0
 21 22  1  0  0  0  0
 22 23  1  0  0  0  0
 23 18  1  0  0  0  0
 24 25  2  0  0  0  0
 25  6  1  0  0  0  0
M  END
>  <CHROM.1>
-91.56353124,172.88181691,-37.32693016,-108.03810106,148.06862497,132.55434708
-52.79377371,39.68503452,-42.25250888,7.25450435,0.75257511,-1.43792411,-1.14085241

>  <Name>
design_2

>  <RI>
0

>  <Rbt.Current_Directory>
/home/ziqiaoxu/icml18-jtnn/VAEdesign

>  <Rbt.Executable>
rbdock ($Id: //depot/dev/client3/rdock/2013.1/src/exe/rbdock.cxx#4 $)

>  <Rbt.Library>
libRbt.so (2013.1, Build901 2013/11/27)

>  <Rbt.Parameter_File>
/export/apps/rDock/src/rDock_2013.1_src//data/scripts/dock.prm

>  <Rbt.Receptor>
/home/ziqiaoxu/icml18-jtnn/VAEdesign/targets/RdRp-SARS-CoV-2/pocket_docking.prm

>  <SCORE>
-22.2655

>  <SCORE.INTER>
-21.0142

>  <SCORE.INTER.CONST>
1

>  <SCORE.INTER.POLAR>
-2.07506

>  <SCORE.INTER.REPUL>
0.00839428

>  <SCORE.INTER.ROT>
7

>  <SCORE.INTER.VDW>
-26.4009

>  <SCORE.INTER.norm>
-0.840567

>  <SCORE.INTRA>
-1.25147

>  <SCORE.INTRA.DIHEDRAL>
0.256566

>  <SCORE.INTRA.DIHEDRAL.0>
14.3757

>  <SCORE.INTRA.POLAR>
0

>  <SCORE.INTRA.POLAR.0>
0

>  <SCORE.INTRA.REPUL>
0

>  <SCORE.INTRA.REPUL.0>
0

>  <SCORE.INTRA.VDW>
-1.37975

>  <SCORE.INTRA.VDW.0>
0.375321

>  <SCORE.INTRA.norm>
-0.0500588

>  <SCORE.RESTR>
0.000152924

>  <SCORE.RESTR.CAVITY>
0.000152924

>  <SCORE.RESTR.norm>
6.11696e-06

>  <SCORE.SYSTEM>
0

>  <SCORE.SYSTEM.CONST>
0

>  <SCORE.SYSTEM.DIHEDRAL>
0

>  <SCORE.SYSTEM.norm>
0

>  <SCORE.heavy>
25

>  <SCORE.norm>
-0.890619

$$$$
design_10
 OpenBabel05252019093D

 25 27  0  0  0  0  0  0  0  0999 V2000
   33.7662  -40.6439    7.2461 C   0  0  0  0  0  0  0  0  0  0  0  0
   34.8446  -40.3981    6.2287 C   0  0  0  0  0  0  0  0  0  0  0  0
   35.9064  -41.4737    6.2992 C   0  0  0  0  0  0  0  0  0  0  0  0
   37.0142  -41.1357    6.7137 O   0  0  0  0  0  0  0  0  0  0  0  0
   35.6027  -42.7846    5.9010 N   0  0  0  0  0  0  0  0  0  0  0  0
   36.4343  -43.9186    5.8918 C   0  0  0  0  0  0  0  0  0  0  0  0
   36.0134  -45.1708    5.5435 C   0  0  0  0  0  0  0  0  0  0  0  0
   36.8890  -46.2666    5.5682 C   0  0  0  0  0  0  0  0  0  0  0  0
   38.2042  -46.1410    5.9403 C   0  0  0  0  0  0  0  0  0  0  0  0
   39.1416  -47.2819    5.9731 C   0  0  0  0  0  0  0  0  0  0  0  0
   40.5883  -46.7949    6.0756 C   0  0  0  0  0  0  0  0  0  0  0  0
   41.3008  -47.0475    5.0873 O   0  0  0  0  0  0  0  0  0  0  0  0
   41.0048  -46.1244    7.2236 N   0  0  0  0  0  0  0  0  0  0  0  0
   42.2918  -45.6139    7.4684 C   0  0  0  0  0  0  0  0  0  0  0  0
   43.3897  -45.8204    6.6770 C   0  0  0  0  0  0  0  0  0  0  0  0
   44.6367  -45.2779    7.0174 C   0  0  0  0  0  0  0  0  0  0  0  0
   44.8261  -44.5204    8.1452 C   0  0  0  0  0  0  0  0  0  0  0  0
   45.8547  -43.9049    8.6937 O   0  0  0  0  0  0  0  0  0  0  0  0
   45.5100  -43.3001    9.8025 C   0  0  0  0  0  0  0  0  0  0  0  0
   46.4010  -42.4943   10.7123 C   0  0  0  0  0  0  0  0  0  0  0  0
   44.1999  -43.5407    9.9696 N   0  0  0  0  0  0  0  0  0  0  0  0
   43.7263  -44.3079    8.9458 C   0  0  0  0  0  0  0  0  0  0  0  0
   42.5031  -44.8302    8.6279 C   0  0  0  0  0  0  0  0  0  0  0  0
   38.6167  -44.8742    6.2888 C   0  0  0  0  0  0  0  0  0  0  0  0
   37.7804  -43.7927    6.2718 C   0  0  0  0  0  0  0  0  0  0  0  0
  1  2  1  0  0  0  0
  2  3  1  0  0  0  0
  3  4  2  0  0  0  0
  3  5  1  0  0  0  0
  5  6  1  0  0  0  0
  6  7  2  0  0  0  0
  7  8  1  0  0  0  0
  8  9  2  0  0  0  0
  9 10  1  0  0  0  0
  9 24  1  0  0  0  0
 10 11  1  0  0  0  0
 11 12  2  0  0  0  0
 11 13  1  0  0  0  0
 13 14  1  0  0  0  0
 14 15  2  0  0  0  0
 15 16  1  0  0  0  0
 16 17  2  0  0  0  0
 17 18  1  0  0  0  0
 18 19  1  0  0  0  0
 19 20  1  0  0  0  0
 19 21  2  0  0  0  0
 21 22  1  0  0  0  0
 22 23  2  0  0  0  0
 22 17  1  0  0  0  0
 23 14  1  0  0  0  0
 24 25  2  0  0  0  0
 25  6  1  0  0  0  0
M  END
>  <CHROM.1>
-111.24769365,176.59581370,165.65120453,-114.56463052,-7.58404737,40.23329655
-44.25062579,7.13871986,-3.11483619,0.32164332,-2.69088734

>  <Name>
design_10

>  <RI>
0

>  <Rbt.Current_Directory>
/home/ziqiaoxu/icml18-jtnn/VAEdesign

>  <Rbt.Executable>
rbdock ($Id: //depot/dev/client3/rdock/2013.1/src/exe/rbdock.cxx#4 $)

>  <Rbt.Library>
libRbt.so (2013.1, Build901 2013/11/27)

>  <Rbt.Parameter_File>
/export/apps/rDock/src/rDock_2013.1_src//data/scripts/dock.prm

>  <Rbt.Receptor>
/home/ziqiaoxu/icml18-jtnn/VAEdesign/targets/RdRp-SARS-CoV-2/pocket_docking.prm

>  <SCORE>
-19.9368

>  <SCORE.INTER>
-17.6279

>  <SCORE.INTER.CONST>
1

>  <SCORE.INTER.POLAR>
-0.595473

>  <SCORE.INTER.REPUL>
0.0784129

>  <SCORE.INTER.ROT>
5

>  <SCORE.INTER.VDW>
-26.3953

>  <SCORE.INTER.norm>
-0.705115

>  <SCORE.INTRA>
-2.30895

>  <SCORE.INTRA.DIHEDRAL>
-0.463434

>  <SCORE.INTRA.DIHEDRAL.0>
3.93564

>  <SCORE.INTRA.POLAR>
0

>  <SCORE.INTRA.POLAR.0>
0

>  <SCORE.INTRA.REPUL>
0

>  <SCORE.INTRA.REPUL.0>
0

>  <SCORE.INTRA.VDW>
-2.07723

>  <SCORE.INTRA.VDW.0>
1.83708

>  <SCORE.INTRA.norm>
-0.0923581

>  <SCORE.RESTR>
0

>  <SCORE.RESTR.CAVITY>
0

>  <SCORE.RESTR.norm>
0

>  <SCORE.SYSTEM>
0

>  <SCORE.SYSTEM.CONST>
0

>  <SCORE.SYSTEM.DIHEDRAL>
0

>  <SCORE.SYSTEM.norm>
0

>  <SCORE.heavy>
25

>  <SCORE.norm>
-0.797473

$$$$
design_12
 OpenBabel05252019093D

 24 26  0  0  0  0  0  0  0  0999 V2000
   45.0189  -44.0945    7.3326 C   0  0  0  0  0  0  0  0  0  0  0  0
   43.7738  -44.8494    7.2556 N   0  0  0  0  0  0  0  0  0  0  0  0
   43.4103  -45.4994    6.1072 C   0  0  0  0  0  0  0  0  0  0  0  0
   44.3006  -45.3314    4.9345 C   0  0  0  0  0  0  0  0  0  0  0  0
   43.9519  -44.6338    3.9585 O   0  0  0  0  0  0  0  0  0  0  0  0
   45.5661  -45.9753    4.9007 N   0  0  0  0  0  0  0  0  0  0  0  0
   46.4604  -45.9785    3.8338 C   0  0  0  0  0  0  0  0  0  0  0  0
   46.4745  -46.7246    2.6059 C   0  0  1  0  0  0  0  0  0  0  0  0
   47.8831  -46.3844    1.9684 C   0  0  0  0  0  0  0  0  0  0  0  0
   46.5536  -48.1126    2.7677 O   0  0  0  0  0  0  0  0  0  0  0  0
   45.4777  -46.4644    1.5299 C   0  0  0  0  0  0  0  0  0  0  0  0
   44.1950  -45.9942    1.5938 C   0  0  0  0  0  0  0  0  0  0  0  0
   43.5443  -45.7634    0.4451 C   0  0  0  0  0  0  0  0  0  0  0  0
   44.2208  -46.0165   -0.7130 C   0  0  0  0  0  0  0  0  0  0  0  0
   45.7266  -46.5681   -0.1799 S   0  0  0  0  0  0  0  0  0  0  0  0
   42.2959  -46.1993    6.0569 N   0  0  0  0  0  0  0  0  0  0  0  0
   41.4551  -46.3110    7.1327 C   0  0  0  0  0  0  0  0  0  0  0  0
   40.2864  -47.0275    7.1166 C   0  0  0  0  0  0  0  0  0  0  0  0
   39.4645  -47.1151    8.2401 C   0  0  0  0  0  0  0  0  0  0  0  0
   39.8199  -46.4668    9.4204 C   0  0  0  0  0  0  0  0  0  0  0  0
   40.9842  -45.7528    9.4203 C   0  0  0  0  0  0  0  0  0  0  0  0
   41.8010  -45.6667    8.3038 C   0  0  0  0  0  0  0  0  0  0  0  0
   42.9704  -44.9422    8.3336 C   0  0  0  0  0  0  0  0  0  0  0  0
   43.2579  -44.3664    9.4119 O   0  0  0  0  0  0  0  0  0  0  0  0
  1  2  1  0  0  0  0
  2  3  1  0  0  0  0
  3  4  1  0  0  0  0
  3 16  2  0  0  0  0
  4  5  2  0  0  0  0
  4  6  1  0  0  0  0
  6  7  1  0  0  0  0
  7  8  1  0  0  0  0
  8  9  1  6  0  0  0
  8 10  1  0  0  0  0
  8 11  1  0  0  0  0
 11 12  2  0  0  0  0
 12 13  1  0  0  0  0
 13 14  2  0  0  0  0
 14 15  1  0  0  0  0
 15 11  1  0  0  0  0
 16 17  1  0  0  0  0
 17 18  2  0  0  0  0
 18 19  1  0  0  0  0
 19 20  2  0  0  0  0
 20 21  1  0  0  0  0
 21 22  2  0  0  0  0
 22 23  1  0  0  0  0
 22 17  1  0  0  0  0
 23 24  2  0  0  0  0
 23  2  1  0  0  0  0
M  END
>  <CHROM.1>
-107.70148277,-77.81963669,-171.95961193,72.71641853,-28.54929541,43.89299182
-45.95695727,4.77699737,-2.09781921,-0.22411582,-1.79209779

>  <Name>
design_12

>  <RI>
0

>  <Rbt.Current_Directory>
/home/ziqiaoxu/icml18-jtnn/VAEdesign

>  <Rbt.Executable>
rbdock ($Id: //depot/dev/client3/rdock/2013.1/src/exe/rbdock.cxx#4 $)

>  <Rbt.Library>
libRbt.so (2013.1, Build901 2013/11/27)

>  <Rbt.Parameter_File>
/export/apps/rDock/src/rDock_2013.1_src//data/scripts/dock.prm

>  <Rbt.Receptor>
/home/ziqiaoxu/icml18-jtnn/VAEdesign/targets/RdRp-SARS-CoV-2/pocket_docking.prm

>  <SCORE>
-25.8883

>  <SCORE.INTER>
-23.1083

>  <SCORE.INTER.CONST>
1

>  <SCORE.INTER.POLAR>
-1.79826

>  <SCORE.INTER.REPUL>
0

>  <SCORE.INTER.ROT>
4

>  <SCORE.INTER.VDW>
-26.3942

>  <SCORE.INTER.norm>
-0.962846

>  <SCORE.INTRA>
-2.77998

>  <SCORE.INTRA.DIHEDRAL>
-0.258654

>  <SCORE.INTRA.DIHEDRAL.0>
14.2086

>  <SCORE.INTRA.POLAR>
0

>  <SCORE.INTRA.POLAR.0>
0

>  <SCORE.INTRA.REPUL>
0

>  <SCORE.INTRA.REPUL.0>
0

>  <SCORE.INTRA.VDW>
-2.65065

>  <SCORE.INTRA.VDW.0>
1.21726

>  <SCORE.INTRA.norm>
-0.115832

>  <SCORE.RESTR>
0

>  <SCORE.RESTR.CAVITY>
0

>  <SCORE.RESTR.norm>
0

>  <SCORE.SYSTEM>
0

>  <SCORE.SYSTEM.CONST>
0

>  <SCORE.SYSTEM.DIHEDRAL>
0

>  <SCORE.SYSTEM.norm>
0

>  <SCORE.heavy>
24

>  <SCORE.norm>
-1.07868

$$$$
design_3
 OpenBabel05252019093D

 24 25  0  0  0  0  0  0  0  0999 V2000
   39.5363  -48.6335    6.2807 C   0  0  0  0  0  0  0  0  0  0  0  0
   39.4792  -47.7067    7.4626 C   0  0  0  0  0  0  0  0  0  0  0  0
   38.3686  -47.6044    8.2525 C   0  0  0  0  0  0  0  0  0  0  0  0
   38.3610  -46.7518    9.3133 C   0  0  0  0  0  0  0  0  0  0  0  0
   39.4522  -45.9576    9.6459 C   0  0  0  0  0  0  0  0  0  0  0  0
   40.5694  -46.0607    8.8512 C   0  0  0  0  0  0  0  0  0  0  0  0
   41.7656  -45.2933    9.0873 C   0  0  0  0  0  0  0  0  0  0  0  0
   41.8840  -44.5645   10.1285 O   0  0  0  0  0  0  0  0  0  0  0  0
   42.8339  -45.3331    8.1673 N   0  0  0  0  0  0  0  0  0  0  0  0
   44.0292  -44.5297    8.4597 C   0  0  0  0  0  0  0  0  0  0  0  0
   44.5746  -44.0340    7.1690 C   0  0  0  0  0  0  0  0  0  0  0  0
   45.1963  -45.0784    6.4032 N   0  0  0  0  0  0  0  0  0  0  0  0
   45.1948  -45.0600    4.9771 C   0  0  0  0  0  0  0  0  0  0  0  0
   44.6437  -44.1107    4.4188 O   0  0  0  0  0  0  0  0  0  0  0  0
   45.8108  -46.1062    4.2647 N   0  0  0  0  0  0  0  0  0  0  0  0
   45.9253  -46.2878    2.8936 C   0  0  0  0  0  0  0  0  0  0  0  0
   44.9498  -45.9586    1.9983 C   0  0  0  0  0  0  0  0  0  0  0  0
   45.0986  -46.1566    0.6112 C   0  0  0  0  0  0  0  0  0  0  0  0
   43.7840  -45.6984   -0.4445 Cl  0  0  0  0  0  0  0  0  0  0  0  0
   46.2686  -46.7013    0.1398 C   0  0  0  0  0  0  0  0  0  0  0  0
   47.2825  -47.0490    1.0112 C   0  0  0  0  0  0  0  0  0  0  0  0
   47.0847  -46.8334    2.3642 C   0  0  0  0  0  0  0  0  0  0  0  0
   48.2001  -47.2225    3.2540 C   0  0  0  0  0  0  0  0  0  0  0  0
   40.5715  -46.9307    7.7721 C   0  0  0  0  0  0  0  0  0  0  0  0
  1  2  1  0  0  0  0
  2  3  2  0  0  0  0
  3  4  1  0  0  0  0
  4  5  2  0  0  0  0
  5  6  1  0  0  0  0
  6  7  1  0  0  0  0
  6 24  2  0  0  0  0
  7  8  2  0  0  0  0
  7  9  1  0  0  0  0
  9 10  1  0  0  0  0
 10 11  1  0  0  0  0
 11 12  1  0  0  0  0
 12 13  1  0  0  0  0
 13 14  2  0  0  0  0
 13 15  1  0  0  0  0
 15 16  1  0  0  0  0
 16 17  2  0  0  0  0
 17 18  1  0  0  0  0
 18 19  1  0  0  0  0
 18 20  2  0  0  0  0
 20 21  1  0  0  0  0
 21 22  2  0  0  0  0
 22 23  1  0  0  0  0
 22 16  1  0  0  0  0
 24  2  1  0  0  0  0
M  END
>  <CHROM.1>
6.46666831,-145.28571033,-72.25341436,148.70486173,-36.94601886,43.42542737
-46.02047472,5.18880952,2.24159103,0.32180953,1.32827442

>  <Name>
design_3

>  <RI>
0

>  <Rbt.Current_Directory>
/home/ziqiaoxu/icml18-jtnn/VAEdesign

>  <Rbt.Executable>
rbdock ($Id: //depot/dev/client3/rdock/2013.1/src/exe/rbdock.cxx#4 $)

>  <Rbt.Library>
libRbt.so (2013.1, Build901 2013/11/27)

>  <Rbt.Parameter_File>
/export/apps/rDock/src/rDock_2013.1_src//data/scripts/dock.prm

>  <Rbt.Receptor>
/home/ziqiaoxu/icml18-jtnn/VAEdesign/targets/RdRp-SARS-CoV-2/pocket_docking.prm

>  <SCORE>
-20.2576

>  <SCORE.INTER>
-20.6211

>  <SCORE.INTER.CONST>
1

>  <SCORE.INTER.POLAR>
-1.62707

>  <SCORE.INTER.REPUL>
0.180255

>  <SCORE.INTER.ROT>
5

>  <SCORE.INTER.VDW>
-26.3903

>  <SCORE.INTER.norm>
-0.859212

>  <SCORE.INTRA>
0.363508

>  <SCORE.INTRA.DIHEDRAL>
5.32639

>  <SCORE.INTRA.DIHEDRAL.0>
2.40995

>  <SCORE.INTRA.POLAR>
0

>  <SCORE.INTRA.POLAR.0>
0

>  <SCORE.INTRA.REPUL>
0

>  <SCORE.INTRA.REPUL.0>
0

>  <SCORE.INTRA.VDW>
-2.29969

>  <SCORE.INTRA.VDW.0>
1.88815

>  <SCORE.INTRA.norm>
0.0151461

>  <SCORE.RESTR>
0

>  <SCORE.RESTR.CAVITY>
0

>  <SCORE.RESTR.norm>
0

>  <SCORE.SYSTEM>
0

>  <SCORE.SYSTEM.CONST>
0

>  <SCORE.SYSTEM.DIHEDRAL>
0

>  <SCORE.SYSTEM.norm>
0

>  <SCORE.heavy>
24

>  <SCORE.norm>
-0.844066

$$$$
design_10
 OpenBabel05252019093D

 25 27  0  0  0  0  0  0  0  0999 V2000
   43.6529  -45.8598   -0.7516 N   0  0  0  0  0  0  0  0  0  0  0  0
   44.8169  -46.2035   -0.0283 C   0  0  0  0  0  0  0  0  0  0  0  0
   45.8111  -46.6675   -0.6294 O   0  0  0  0  0  0  0  0  0  0  0  0
   44.8705  -46.0214    1.4208 C   0  0  0  0  0  0  0  0  0  0  0  0
   45.9584  -46.4361    2.1562 C   0  0  0  0  0  0  0  0  0  0  0  0
   46.0007  -46.2620    3.5158 C   0  0  0  0  0  0  0  0  0  0  0  0
   44.9675  -45.6629    4.2526 C   0  0  0  0  0  0  0  0  0  0  0  0
   45.1023  -45.5116    5.6492 N   0  0  0  0  0  0  0  0  0  0  0  0
   44.3433  -44.7002    6.5050 C   0  0  0  0  0  0  0  0  0  0  0  0
   43.4142  -43.9898    6.1028 O   0  0  0  0  0  0  0  0  0  0  0  0
   44.6344  -44.6637    7.9603 C   0  0  0  0  0  0  0  0  0  0  0  0
   43.5305  -44.1245    8.6258 O   0  0  0  0  0  0  0  0  0  0  0  0
   42.3618  -44.8958    8.6840 C   0  0  0  0  0  0  0  0  0  0  0  0
   41.3875  -44.6439    9.6350 C   0  0  0  0  0  0  0  0  0  0  0  0
   40.2302  -45.3892    9.7113 C   0  0  0  0  0  0  0  0  0  0  0  0
   39.9963  -46.4248    8.8342 C   0  0  0  0  0  0  0  0  0  0  0  0
   38.8313  -47.1556    8.9306 C   0  0  0  0  0  0  0  0  0  0  0  0
   38.6564  -48.1778    8.0247 C   0  0  0  0  0  0  0  0  0  0  0  0
   39.6467  -48.3940    7.0982 C   0  0  0  0  0  0  0  0  0  0  0  0
   39.4502  -49.3482    6.2764 O   0  0  0  0  0  0  0  0  0  0  0  0
   40.7331  -47.6731    7.0481 O   0  0  0  0  0  0  0  0  0  0  0  0
   40.9710  -46.6716    7.8880 C   0  0  0  0  0  0  0  0  0  0  0  0
   42.1304  -45.9322    7.8042 C   0  0  0  0  0  0  0  0  0  0  0  0
   43.8883  -45.2532    3.5078 C   0  0  0  0  0  0  0  0  0  0  0  0
   43.8427  -45.4304    2.1168 C   0  0  0  0  0  0  0  0  0  0  0  0
  1  2  1  0  0  0  0
  2  3  2  0  0  0  0
  2  4  1  0  0  0  0
  4  5  2  0  0  0  0
  5  6  1  0  0  0  0
  6  7  2  0  0  0  0
  7  8  1  0  0  0  0
  7 24  1  0  0  0  0
  8  9  1  0  0  0  0
  9 10  2  0  0  0  0
  9 11  1  0  0  0  0
 11 12  1  0  0  0  0
 12 13  1  0  0  0  0
 13 14  2  0  0  0  0
 14 15  1  0  0  0  0
 15 16  2  0  0  0  0
 16 17  1  0  0  0  0
 17 18  2  0  0  0  0
 18 19  1  0  0  0  0
 19 20  2  0  0  0  0
 19 21  1  0  0  0  0
 21 22  1  0  0  0  0
 22 23  2  0  0  0  0
 22 16  1  0  0  0  0
 23 13  1  0  0  0  0
 24 25  2  0  0  0  0
 25  4  1  0  0  0  0
M  END
>  <CHROM.1>
175.39752243,164.83944649,-162.49258689,70.01464804,160.13328637,42.78841714
-46.06321825,5.55883922,0.89126271,-0.59707805,-1.93280125

>  <Name>
design_10

>  <RI>
0

>  <Rbt.Current_Directory>
/home/ziqiaoxu/icml18-jtnn/VAEdesign

>  <Rbt.Executable>
rbdock ($Id: //depot/dev/client3/rdock/2013.1/src/exe/rbdock.cxx#4 $)

>  <Rbt.Library>
libRbt.so (2013.1, Build901 2013/11/27)

>  <Rbt.Parameter_File>
/export/apps/rDock/src/rDock_2013.1_src//data/scripts/dock.prm

>  <Rbt.Receptor>
/home/ziqiaoxu/icml18-jtnn/VAEdesign/targets/RdRp-SARS-CoV-2/pocket_docking.prm

>  <SCORE>
-21.095

>  <SCORE.INTER>
-22.2538

>  <SCORE.INTER.CONST>
1

>  <SCORE.INTER.POLAR>
-1.85132

>  <SCORE.INTER.REPUL>
0.00536812

>  <SCORE.INTER.ROT>
5

>  <SCORE.INTER.VDW>
-26.3862

>  <SCORE.INTER.norm>
-0.890153

>  <SCORE.INTRA>
1.15879

>  <SCORE.INTRA.DIHEDRAL>
1.17642

>  <SCORE.INTRA.DIHEDRAL.0>
2.093

>  <SCORE.INTRA.POLAR>
0.00878392

>  <SCORE.INTRA.POLAR.0>
-0.00878392

>  <SCORE.INTRA.REPUL>
0

>  <SCORE.INTRA.REPUL.0>
0

>  <SCORE.INTRA.VDW>
0.540717

>  <SCORE.INTRA.VDW.0>
1.09295

>  <SCORE.INTRA.norm>
0.0463517

>  <SCORE.RESTR>
0

>  <SCORE.RESTR.CAVITY>
0

>  <SCORE.RESTR.norm>
0

>  <SCORE.SYSTEM>
0

>  <SCORE.SYSTEM.CONST>
0

>  <SCORE.SYSTEM.DIHEDRAL>
0

>  <SCORE.SYSTEM.norm>
0

>  <SCORE.heavy>
25

>  <SCORE.norm>
-0.843801

$$$$
design_13
 OpenBabel05252019093D

 24 25  0  0  0  0  0  0  0  0999 V2000
   39.0347  -49.2621    6.6375 C   0  0  0  0  0  0  0  0  0  0  0  0
   38.9282  -47.7671    6.3503 C   0  0  0  0  0  0  0  0  0  0  0  0
   37.7808  -47.1419    7.0429 C   0  0  1  0  0  0  0  0  0  0  0  0
   37.9479  -47.0328    8.5639 C   0  0  0  0  0  0  0  0  0  0  0  0
   39.0946  -46.4409    9.0279 N   0  0  0  0  0  0  0  0  0  0  0  0
   40.2397  -45.8490    9.4939 C   0  0  0  0  0  0  0  0  0  0  0  0
   40.4752  -45.4514   10.6888 O   0  0  0  0  0  0  0  0  0  0  0  0
   41.3112  -45.6387    8.5579 N   0  0  0  0  0  0  0  0  0  0  0  0
   42.5550  -45.0442    8.7712 C   0  0  0  0  0  0  0  0  0  0  0  0
   43.5360  -45.0040    7.8394 C   0  0  0  0  0  0  0  0  0  0  0  0
   44.7503  -44.3699    8.1444 C   0  0  0  0  0  0  0  0  0  0  0  0
   45.0031  -43.7861    9.3376 C   0  0  0  0  0  0  0  0  0  0  0  0
   46.5145  -42.9948    9.7178 S   0  0  0  0  0  0  0  0  0  0  0  0
   47.2478  -43.9168   11.0633 C   0  0  0  0  0  0  0  0  0  0  0  0
   47.3847  -42.9227    8.5177 O   0  0  0  0  0  0  0  0  0  0  0  0
   46.3035  -41.5954   10.2318 O   0  0  0  0  0  0  0  0  0  0  0  0
   44.0045  -43.8264   10.2896 C   0  0  0  0  0  0  0  0  0  0  0  0
   42.8146  -44.4375   10.0149 C   0  0  0  0  0  0  0  0  0  0  0  0
   37.4094  -45.7908    6.5726 C   0  0  0  0  0  0  0  0  0  0  0  0
   36.1957  -45.5837    5.9718 C   0  0  0  0  0  0  0  0  0  0  0  0
   35.8032  -44.3281    5.5017 C   0  0  0  0  0  0  0  0  0  0  0  0
   36.6854  -43.2663    5.6575 C   0  0  0  0  0  0  0  0  0  0  0  0
   37.9232  -43.4681    6.2683 C   0  0  0  0  0  0  0  0  0  0  0  0
   38.2725  -44.7238    6.7187 C   0  0  0  0  0  0  0  0  0  0  0  0
  1  2  1  0  0  0  0
  3  2  1  6  0  0  0
  3  4  1  0  0  0  0
  3 19  1  0  0  0  0
  4  5  1  0  0  0  0
  5  6  1  0  0  0  0
  6  7  2  0  0  0  0
  6  8  1  0  0  0  0
  8  9  1  0  0  0  0
  9 10  2  0  0  0  0
 10 11  1  0  0  0  0
 11 12  2  0  0  0  0
 12 13  1  0  0  0  0
 12 17  1  0  0  0  0
 13 14  1  0  0  0  0
 13 15  2  0  0  0  0
 13 16  2  0  0  0  0
 17 18  2  0  0  0  0
 18  9  1  0  0  0  0
 19 20  2  0  0  0  0
 20 21  1  0  0  0  0
 21 22  2  0  0  0  0
 22 23  1  0  0  0  0
 23 24  2  0  0  0  0
 24 19  1  0  0  0  0
M  END
>  <CHROM.1>
70.59041864,52.36812310,164.04053059,174.00360327,-116.82770913,114.96443424
41.51507118,-44.87697131,8.33864661,-2.98960255,-0.41190007,-0.35586584

>  <Name>
design_13

>  <RI>
0

>  <Rbt.Current_Directory>
/home/ziqiaoxu/icml18-jtnn/VAEdesign

>  <Rbt.Executable>
rbdock ($Id: //depot/dev/client3/rdock/2013.1/src/exe/rbdock.cxx#4 $)

>  <Rbt.Library>
libRbt.so (2013.1, Build901 2013/11/27)

>  <Rbt.Parameter_File>
/export/apps/rDock/src/rDock_2013.1_src//data/scripts/dock.prm

>  <Rbt.Receptor>
/home/ziqiaoxu/icml18-jtnn/VAEdesign/targets/RdRp-SARS-CoV-2/pocket_docking.prm

>  <SCORE>
-20.6972

>  <SCORE.INTER>
-19.4709

>  <SCORE.INTER.CONST>
1

>  <SCORE.INTER.POLAR>
-1.34365

>  <SCORE.INTER.REPUL>
0.0163404

>  <SCORE.INTER.ROT>
6

>  <SCORE.INTER.VDW>
-26.3841

>  <SCORE.INTER.norm>
-0.811286

>  <SCORE.INTRA>
-1.22631

>  <SCORE.INTRA.DIHEDRAL>
0.0248642

>  <SCORE.INTRA.DIHEDRAL.0>
3.19625

>  <SCORE.INTRA.POLAR>
0

>  <SCORE.INTRA.POLAR.0>
0

>  <SCORE.INTRA.REPUL>
0

>  <SCORE.INTRA.REPUL.0>
0

>  <SCORE.INTRA.VDW>
-1.23874

>  <SCORE.INTRA.VDW.0>
0.794884

>  <SCORE.INTRA.norm>
-0.051096

>  <SCORE.RESTR>
0

>  <SCORE.RESTR.CAVITY>
0

>  <SCORE.RESTR.norm>
0

>  <SCORE.SYSTEM>
0

>  <SCORE.SYSTEM.CONST>
0

>  <SCORE.SYSTEM.DIHEDRAL>
0

>  <SCORE.SYSTEM.norm>
0

>  <SCORE.heavy>
24

>  <SCORE.norm>
-0.862382

$$$$
design_4
 OpenBabel05252019093D

 25 27  0  0  0  0  0  0  0  0999 V2000
   47.1780  -44.8925    4.3170 C   0  0  0  0  0  0  0  0  0  0  0  0
   46.2819  -44.8056    5.4986 C   0  0  0  0  0  0  0  0  0  0  0  0
   45.0823  -45.4742    5.5633 C   0  0  0  0  0  0  0  0  0  0  0  0
   44.2876  -45.3556    6.6916 C   0  0  0  0  0  0  0  0  0  0  0  0
   44.6645  -44.5779    7.7692 C   0  0  0  0  0  0  0  0  0  0  0  0
   43.8096  -44.4707    8.9438 C   0  0  0  0  0  0  0  0  0  0  0  0
   44.0920  -43.8717   10.1074 N   0  0  0  0  0  0  0  0  0  0  0  0
   43.0702  -43.9724   10.9516 N   0  0  0  0  0  0  0  0  0  0  0  0
   42.1017  -44.6498   10.3276 C   0  0  0  0  0  0  0  0  0  0  0  0
   40.7911  -44.9792   10.9144 C   0  0  0  0  0  0  0  0  0  0  0  0
   40.1431  -46.1202   10.3759 N   0  0  0  0  0  0  0  0  0  0  0  0
   39.1248  -45.9098    9.3884 C   0  0  0  0  0  0  0  0  0  0  0  0
   38.8329  -44.7479    9.0276 O   0  0  0  0  0  0  0  0  0  0  0  0
   38.4035  -47.0639    8.7809 C   0  0  0  0  0  0  0  0  0  0  0  0
   38.8676  -47.2803    7.3704 C   0  0  0  0  0  0  0  0  0  0  0  0
   38.8899  -46.1677    6.5896 O   0  0  0  0  0  0  0  0  0  0  0  0
   37.9671  -45.2406    6.2147 C   0  0  0  0  0  0  0  0  0  0  0  0
   38.1828  -43.8935    6.1640 C   0  0  0  0  0  0  0  0  0  0  0  0
   37.2173  -43.0013    5.7822 C   0  0  0  0  0  0  0  0  0  0  0  0
   35.9733  -43.4450    5.4297 C   0  0  0  0  0  0  0  0  0  0  0  0
   35.7066  -44.7771    5.4622 C   0  0  0  0  0  0  0  0  0  0  0  0
   36.6724  -45.6705    5.8445 C   0  0  0  0  0  0  0  0  0  0  0  0
   42.5680  -44.9483    9.1002 N   0  0  0  0  0  0  0  0  0  0  0  0
   45.8690  -43.9144    7.6892 C   0  0  0  0  0  0  0  0  0  0  0  0
   46.6838  -44.0217    6.5599 C   0  0  0  0  0  0  0  0  0  0  0  0
  1  2  1  0  0  0  0
  2  3  2  0  0  0  0
  3  4  1  0  0  0  0
  4  5  2  0  0  0  0
  5  6  1  0  0  0  0
  5 24  1  0  0  0  0
  6  7  2  0  0  0  0
  7  8  1  0  0  0  0
  8  9  1  0  0  0  0
  9 10  1  0  0  0  0
  9 23  2  0  0  0  0
 10 11  1  0  0  0  0
 11 12  1  0  0  0  0
 12 13  2  0  0  0  0
 12 14  1  0  0  0  0
 14 15  1  0  0  0  0
 15 16  1  0  0  0  0
 16 17  1  0  0  0  0
 17 18  2  0  0  0  0
 18 19  1  0  0  0  0
 19 20  2  0  0  0  0
 20 21  1  0  0  0  0
 21 22  2  0  0  0  0
 22 17  1  0  0  0  0
 23  6  1  0  0  0  0
 24 25  2  0  0  0  0
 25  2  1  0  0  0  0
M  END
>  <CHROM.1>
172.82924022,-154.61074464,-98.75192784,-106.58290181,-49.16804793,-56.94536694
137.23339781,41.27084172,-44.95261579,7.67462544,-0.03522590,-0.06524414
-1.50196523

>  <Name>
design_4

>  <RI>
0

>  <Rbt.Current_Directory>
/home/ziqiaoxu/icml18-jtnn/VAEdesign

>  <Rbt.Executable>
rbdock ($Id: //depot/dev/client3/rdock/2013.1/src/exe/rbdock.cxx#4 $)

>  <Rbt.Library>
libRbt.so (2013.1, Build901 2013/11/27)

>  <Rbt.Parameter_File>
/export/apps/rDock/src/rDock_2013.1_src//data/scripts/dock.prm

>  <Rbt.Receptor>
/home/ziqiaoxu/icml18-jtnn/VAEdesign/targets/RdRp-SARS-CoV-2/pocket_docking.prm

>  <SCORE>
-19.177

>  <SCORE.INTER>
-18.8302

>  <SCORE.INTER.CONST>
1

>  <SCORE.INTER.POLAR>
-1.42563

>  <SCORE.INTER.REPUL>
0

>  <SCORE.INTER.ROT>
7

>  <SCORE.INTER.VDW>
-26.383

>  <SCORE.INTER.norm>
-0.753207

>  <SCORE.INTRA>
-0.346816

>  <SCORE.INTRA.DIHEDRAL>
4.2803

>  <SCORE.INTRA.DIHEDRAL.0>
3.69298

>  <SCORE.INTRA.POLAR>
0

>  <SCORE.INTRA.POLAR.0>
0

>  <SCORE.INTRA.REPUL>
0

>  <SCORE.INTRA.REPUL.0>
0

>  <SCORE.INTRA.VDW>
-2.48697

>  <SCORE.INTRA.VDW.0>
0.142232

>  <SCORE.INTRA.norm>
-0.0138727

>  <SCORE.RESTR>
0

>  <SCORE.RESTR.CAVITY>
0

>  <SCORE.RESTR.norm>
0

>  <SCORE.SYSTEM>
0

>  <SCORE.SYSTEM.CONST>
0

>  <SCORE.SYSTEM.DIHEDRAL>
0

>  <SCORE.SYSTEM.norm>
0

>  <SCORE.heavy>
25

>  <SCORE.norm>
-0.76708

$$$$
design_14
 OpenBabel05252019093D

 23 24  0  0  0  0  0  0  0  0999 V2000
   40.3230  -45.9743   11.0553 N   0  0  0  0  0  0  0  0  0  0  0  0
   40.8739  -45.2219    9.5777 S   0  0  0  0  0  0  0  0  0  0  0  0
   40.2032  -43.8803    9.4333 O   0  0  0  0  0  0  0  0  0  0  0  0
   42.3387  -44.9847    9.6802 O   0  0  0  0  0  0  0  0  0  0  0  0
   40.5303  -46.2622    8.2055 C   0  0  0  0  0  0  0  0  0  0  0  0
   39.6386  -47.3130    8.3489 C   0  0  0  0  0  0  0  0  0  0  0  0
   39.3571  -48.1396    7.2863 C   0  0  0  0  0  0  0  0  0  0  0  0
   39.9650  -47.9370    6.0376 C   0  0  0  0  0  0  0  0  0  0  0  0
   40.8423  -46.9017    5.8971 C   0  0  0  0  0  0  0  0  0  0  0  0
   41.4656  -46.6341    4.6555 N   0  0  0  0  0  0  0  0  0  0  0  0
   42.4551  -45.6719    4.4056 C   0  0  0  0  0  0  0  0  0  0  0  0
   42.8874  -44.9495    5.3045 O   0  0  0  0  0  0  0  0  0  0  0  0
   43.0196  -45.4897    3.0388 C   0  0  0  0  0  0  0  0  0  0  0  0
   42.0752  -44.9352    2.0349 C   0  0  0  0  0  0  0  0  0  0  0  0
   42.2872  -43.5052    1.6453 C   0  0  0  0  0  0  0  0  0  0  0  0
   43.7313  -43.3050    0.5908 S   0  0  0  0  0  0  0  0  0  0  0  0
   43.9105  -41.6022    0.1170 C   0  0  0  0  0  0  0  0  0  0  0  0
   43.1352  -40.6125    0.6712 C   0  0  0  0  0  0  0  0  0  0  0  0
   43.2740  -39.2753    0.3307 C   0  0  0  0  0  0  0  0  0  0  0  0
   44.2129  -38.8985   -0.5923 C   0  0  0  0  0  0  0  0  0  0  0  0
   44.9956  -39.8894   -1.1541 C   0  0  0  0  0  0  0  0  0  0  0  0
   44.8586  -41.2070   -0.8180 C   0  0  0  0  0  0  0  0  0  0  0  0
   41.1283  -46.0539    6.9957 C   0  0  0  0  0  0  0  0  0  0  0  0
  1  2  1  0  0  0  0
  2  3  2  0  0  0  0
  2  4  2  0  0  0  0
  2  5  1  0  0  0  0
  5  6  2  0  0  0  0
  6  7  1  0  0  0  0
  7  8  2  0  0  0  0
  8  9  1  0  0  0  0
  9 10  1  0  0  0  0
  9 23  2  0  0  0  0
 10 11  1  0  0  0  0
 11 12  2  0  0  0  0
 11 13  1  0  0  0  0
 13 14  1  0  0  0  0
 14 15  1  0  0  0  0
 15 16  1  0  0  0  0
 16 17  1  0  0  0  0
 17 18  2  0  0  0  0
 18 19  1  0  0  0  0
 19 20  2  0  0  0  0
 20 21  1  0  0  0  0
 21 22  2  0  0  0  0
 22 17  1  0  0  0  0
 23  5  1  0  0  0  0
M  END
>  <CHROM.1>
44.92272961,15.35217825,-174.80446632,68.02442266,105.81319419,73.43394794
178.28784948,8.42786311,42.06799668,-44.31997037,4.66166433,-2.75079374,-1.22195217
-2.21711285

>  <Name>
design_14

>  <RI>
0

>  <Rbt.Current_Directory>
/home/ziqiaoxu/icml18-jtnn/VAEdesign

>  <Rbt.Executable>
rbdock ($Id: //depot/dev/client3/rdock/2013.1/src/exe/rbdock.cxx#4 $)

>  <Rbt.Library>
libRbt.so (2013.1, Build901 2013/11/27)

>  <Rbt.Parameter_File>
/export/apps/rDock/src/rDock_2013.1_src//data/scripts/dock.prm

>  <Rbt.Receptor>
/home/ziqiaoxu/icml18-jtnn/VAEdesign/targets/RdRp-SARS-CoV-2/pocket_docking.prm

>  <SCORE>
-24.0389

>  <SCORE.INTER>
-24.7106

>  <SCORE.INTER.CONST>
1

>  <SCORE.INTER.POLAR>
-3.45026

>  <SCORE.INTER.REPUL>
0

>  <SCORE.INTER.ROT>
8

>  <SCORE.INTER.VDW>
-26.3797

>  <SCORE.INTER.norm>
-1.07437

>  <SCORE.INTRA>
0.671675

>  <SCORE.INTRA.DIHEDRAL>
3.29805

>  <SCORE.INTRA.DIHEDRAL.0>
7.02976

>  <SCORE.INTRA.POLAR>
0

>  <SCORE.INTRA.POLAR.0>
0

>  <SCORE.INTRA.REPUL>
0

>  <SCORE.INTRA.REPUL.0>
0

>  <SCORE.INTRA.VDW>
-0.977351

>  <SCORE.INTRA.VDW.0>
-0.343353

>  <SCORE.INTRA.norm>
0.0292033

>  <SCORE.RESTR>
0

>  <SCORE.RESTR.CAVITY>
0

>  <SCORE.RESTR.norm>
0

>  <SCORE.SYSTEM>
0

>  <SCORE.SYSTEM.CONST>
0

>  <SCORE.SYSTEM.DIHEDRAL>
0

>  <SCORE.SYSTEM.norm>
0

>  <SCORE.heavy>
23

>  <SCORE.norm>
-1.04517

$$$$
design_2
 OpenBabel05252019093D

 26 29  0  0  0  0  0  0  0  0999 V2000
   41.3804  -44.4888   10.6136 C   0  0  0  0  0  0  0  0  0  0  0  0
   40.7540  -45.5056    9.7094 C   0  0  0  0  0  0  0  0  0  0  0  0
   39.6070  -46.1610    9.8309 N   0  0  0  0  0  0  0  0  0  0  0  0
   39.3924  -46.9957    8.8052 C   0  0  0  0  0  0  0  0  0  0  0  0
   38.4214  -47.8886    8.4123 C   0  0  0  0  0  0  0  0  0  0  0  0
   38.5463  -48.6089    7.2354 C   0  0  0  0  0  0  0  0  0  0  0  0
   39.6622  -48.4433    6.4217 C   0  0  0  0  0  0  0  0  0  0  0  0
   40.6343  -47.5632    6.7944 C   0  0  0  0  0  0  0  0  0  0  0  0
   40.4892  -46.8498    7.9808 C   0  0  0  0  0  0  0  0  0  0  0  0
   41.3384  -45.9182    8.5480 C   0  0  0  0  0  0  0  0  0  0  0  0
   42.6242  -45.4680    7.9927 C   0  0  0  0  0  0  0  0  0  0  0  0
   43.5171  -44.6072    8.4802 N   0  0  0  0  0  0  0  0  0  0  0  0
   44.5084  -44.5105    7.6506 O   0  0  0  0  0  0  0  0  0  0  0  0
   44.3369  -45.2661    6.6158 C   0  0  0  0  0  0  0  0  0  0  0  0
   45.1678  -45.5020    5.4146 C   0  0  0  0  0  0  0  0  0  0  0  0
   44.5019  -44.9295    4.2308 C   0  0  0  0  0  0  0  0  0  0  0  0
   44.6610  -43.6937    3.9932 O   0  0  0  0  0  0  0  0  0  0  0  0
   43.7177  -45.7634    3.4084 N   0  0  0  0  0  0  0  0  0  0  0  0
   43.0660  -45.2088    2.2507 C   0  0  0  0  0  0  0  0  0  0  0  0
   44.0446  -44.8145    1.2032 C   0  0  0  0  0  0  0  0  0  0  0  0
   44.3879  -43.5175    0.9881 C   0  0  0  0  0  0  0  0  0  0  0  0
   45.3097  -43.2046   -0.0114 C   0  0  0  0  0  0  0  0  0  0  0  0
   45.8683  -44.2062   -0.7754 C   0  0  0  0  0  0  0  0  0  0  0  0
   45.5162  -45.5166   -0.5522 C   0  0  0  0  0  0  0  0  0  0  0  0
   44.6029  -45.8163    0.4393 C   0  0  0  0  0  0  0  0  0  0  0  0
   43.1439  -45.8910    6.8030 N   0  0  0  0  0  0  0  0  0  0  0  0
  1  2  1  0  0  0  0
  2  3  1  0  0  0  0
  3  4  1  0  0  0  0
  4  5  2  0  0  0  0
  5  6  1  0  0  0  0
  6  7  2  0  0  0  0
  7  8  1  0  0  0  0
  8  9  2  0  0  0  0
  9 10  1  0  0  0  0
  9  4  1  0  0  0  0
 10 11  1  0  0  0  0
 10  2  2  0  0  0  0
 11 12  2  0  0  0  0
 12 13  1  0  0  0  0
 13 14  1  0  0  0  0
 14 15  1  0  0  0  0
 14 26  2  0  0  0  0
 15 16  1  0  0  0  0
 16 17  2  0  0  0  0
 16 18  1  0  0  0  0
 18 19  1  0  0  0  0
 19 20  1  0  0  0  0
 20 21  2  0  0  0  0
 21 22  1  0  0  0  0
 22 23  2  0  0  0  0
 23 24  1  0  0  0  0
 24 25  2  0  0  0  0
 25 20  1  0  0  0  0
 26 11  1  0  0  0  0
M  END
>  <CHROM.1>
1.83912486,-110.99274359,83.65561370,68.59532144,-103.50399831,42.69675622
-45.59609887,5.50199727,-2.23246162,-0.63729071,-1.75912788

>  <Name>
design_2

>  <RI>
0

>  <Rbt.Current_Directory>
/home/ziqiaoxu/icml18-jtnn/VAEdesign

>  <Rbt.Executable>
rbdock ($Id: //depot/dev/client3/rdock/2013.1/src/exe/rbdock.cxx#4 $)

>  <Rbt.Library>
libRbt.so (2013.1, Build901 2013/11/27)

>  <Rbt.Parameter_File>
/export/apps/rDock/src/rDock_2013.1_src//data/scripts/dock.prm

>  <Rbt.Receptor>
/home/ziqiaoxu/icml18-jtnn/VAEdesign/targets/RdRp-SARS-CoV-2/pocket_docking.prm

>  <SCORE>
-29.3075

>  <SCORE.INTER>
-22.667

>  <SCORE.INTER.CONST>
1

>  <SCORE.INTER.POLAR>
-1.96704

>  <SCORE.INTER.REPUL>
0

>  <SCORE.INTER.ROT>
5

>  <SCORE.INTER.VDW>
-26.379

>  <SCORE.INTER.norm>
-0.871808

>  <SCORE.INTRA>
-6.64047

>  <SCORE.INTRA.DIHEDRAL>
-11.3805

>  <SCORE.INTRA.DIHEDRAL.0>
16.0058

>  <SCORE.INTRA.POLAR>
0

>  <SCORE.INTRA.POLAR.0>
0

>  <SCORE.INTRA.REPUL>
0

>  <SCORE.INTRA.REPUL.0>
0

>  <SCORE.INTRA.VDW>
-0.950212

>  <SCORE.INTRA.VDW.0>
-1.61236

>  <SCORE.INTRA.norm>
-0.255403

>  <SCORE.RESTR>
0

>  <SCORE.RESTR.CAVITY>
0

>  <SCORE.RESTR.norm>
0

>  <SCORE.SYSTEM>
0

>  <SCORE.SYSTEM.CONST>
0

>  <SCORE.SYSTEM.DIHEDRAL>
0

>  <SCORE.SYSTEM.norm>
0

>  <SCORE.heavy>
26

>  <SCORE.norm>
-1.12721

$$$$
design_11
 OpenBabel05252019093D

 27 30  0  0  0  0  0  0  0  0999 V2000
   39.0299  -47.3011    7.8134 C   0  0  0  0  0  0  0  0  0  0  0  0
   38.1402  -46.6006    6.8509 C   0  0  0  0  0  0  0  0  0  0  0  0
   37.6093  -47.3048    5.7901 C   0  0  0  0  0  0  0  0  0  0  0  0
   36.7819  -46.6716    4.8871 C   0  0  0  0  0  0  0  0  0  0  0  0
   36.4793  -45.3319    5.0371 C   0  0  0  0  0  0  0  0  0  0  0  0
   36.9970  -44.6068    6.0881 C   0  0  0  0  0  0  0  0  0  0  0  0
   36.6666  -43.1924    6.2311 C   0  0  0  0  0  0  0  0  0  0  0  0
   35.3738  -42.8205    6.1854 N   0  0  0  0  0  0  0  0  0  0  0  0
   34.9888  -41.5345    6.3094 C   0  0  0  0  0  0  0  0  0  0  0  0
   33.6097  -41.1623    6.2577 N   0  0  0  0  0  0  0  0  0  0  0  0
   35.9867  -40.5703    6.4915 C   0  0  0  0  0  0  0  0  0  0  0  0
   37.3145  -40.9390    6.5400 C   0  0  0  0  0  0  0  0  0  0  0  0
   38.3791  -39.9547    6.7287 C   0  0  1  0  0  0  0  0  0  0  0  0
   38.8833  -39.9932    8.1306 C   0  0  0  0  0  0  0  0  0  0  0  0
   40.2651  -40.5453    8.2003 C   0  0  0  0  0  0  0  0  0  0  0  0
   41.1911  -39.7504    7.3437 C   0  0  0  0  0  0  0  0  0  0  0  0
   40.6663  -39.3808    6.0681 N   0  0  0  0  0  0  0  0  0  0  0  0
   40.4629  -37.9808    5.8756 C   0  0  0  0  0  0  0  0  0  0  0  0
   40.4561  -37.5376    4.4673 C   0  0  0  0  0  0  0  0  0  0  0  0
   39.5637  -36.5686    4.0675 C   0  0  0  0  0  0  0  0  0  0  0  0
   39.5183  -36.1229    2.7456 C   0  0  0  0  0  0  0  0  0  0  0  0
   40.3637  -36.6519    1.8457 N   0  0  0  0  0  0  0  0  0  0  0  0
   41.2409  -37.5977    2.2161 C   0  0  0  0  0  0  0  0  0  0  0  0
   41.3096  -38.0626    3.5284 C   0  0  0  0  0  0  0  0  0  0  0  0
   39.4791  -40.1272    5.7033 C   0  0  0  0  0  0  0  0  0  0  0  0
   37.5960  -42.2469    6.4062 N   0  0  0  0  0  0  0  0  0  0  0  0
   37.8196  -45.2659    6.9731 C   0  0  0  0  0  0  0  0  0  0  0  0
  1  2  1  0  0  0  0
  2  3  2  0  0  0  0
  3  4  1  0  0  0  0
  4  5  2  0  0  0  0
  5  6  1  0  0  0  0
  6  7  1  0  0  0  0
  6 27  2  0  0  0  0
  7  8  2  0  0  0  0
  8  9  1  0  0  0  0
  9 10  1  0  0  0  0
  9 11  2  0  0  0  0
 11 12  1  0  0  0  0
 12 26  2  0  0  0  0
 13 12  1  1  0  0  0
 13 14  1  0  0  0  0
 14 15  1  0  0  0  0
 15 16  1  0  0  0  0
 16 17  1  0  0  0  0
 17 18  1  0  0  0  0
 17 25  1  0  0  0  0
 18 19  1  0  0  0  0
 19 20  2  0  0  0  0
 20 21  1  0  0  0  0
 21 22  2  0  0  0  0
 22 23  1  0  0  0  0
 23 24  2  0  0  0  0
 24 19  1  0  0  0  0
 25 13  1  0  0  0  0
 26  7  1  0  0  0  0
 27  2  1  0  0  0  0
M  END
>  <CHROM.1>
50.56682921,103.18083305,156.40064250,141.05062960,38.37876276,-41.30528996
5.75448765,-1.95068172,-0.04157684,-0.30013682

>  <Name>
design_11

>  <RI>
0

>  <Rbt.Current_Directory>
/home/ziqiaoxu/icml18-jtnn/VAEdesign

>  <Rbt.Executable>
rbdock ($Id: //depot/dev/client3/rdock/2013.1/src/exe/rbdock.cxx#4 $)

>  <Rbt.Library>
libRbt.so (2013.1, Build901 2013/11/27)

>  <Rbt.Parameter_File>
/export/apps/rDock/src/rDock_2013.1_src//data/scripts/dock.prm

>  <Rbt.Receptor>
/home/ziqiaoxu/icml18-jtnn/VAEdesign/targets/RdRp-SARS-CoV-2/pocket_docking.prm

>  <SCORE>
-20.0113

>  <SCORE.INTER>
-19.8629

>  <SCORE.INTER.CONST>
1

>  <SCORE.INTER.POLAR>
-0.848528

>  <SCORE.INTER.REPUL>
0

>  <SCORE.INTER.ROT>
4

>  <SCORE.INTER.VDW>
-26.3779

>  <SCORE.INTER.norm>
-0.735662

>  <SCORE.INTRA>
-0.148471

>  <SCORE.INTRA.DIHEDRAL>
3.30026

>  <SCORE.INTRA.DIHEDRAL.0>
1.54601

>  <SCORE.INTRA.POLAR>
0

>  <SCORE.INTRA.POLAR.0>
0

>  <SCORE.INTRA.REPUL>
0

>  <SCORE.INTRA.REPUL.0>
0

>  <SCORE.INTRA.VDW>
-1.7986

>  <SCORE.INTRA.VDW.0>
-0.131059

>  <SCORE.INTRA.norm>
-0.00549891

>  <SCORE.RESTR>
0

>  <SCORE.RESTR.CAVITY>
0

>  <SCORE.RESTR.norm>
0

>  <SCORE.SYSTEM>
0

>  <SCORE.SYSTEM.CONST>
0

>  <SCORE.SYSTEM.DIHEDRAL>
0

>  <SCORE.SYSTEM.norm>
0

>  <SCORE.heavy>
27

>  <SCORE.norm>
-0.741161

$$$$
design_4
 OpenBabel05252019093D

 25 28  0  0  0  0  0  0  0  0999 V2000
   36.9534  -46.3604    7.7608 O   0  0  0  0  0  0  0  0  0  0  0  0
   37.0795  -46.5001    6.5166 C   0  0  0  0  0  0  0  0  0  0  0  0
   36.2244  -45.6870    5.6005 C   0  0  0  0  0  0  0  0  0  0  0  0
   36.5033  -44.2210    5.8084 C   0  0  0  0  0  0  0  0  0  0  0  0
   35.7497  -43.1838    5.4233 N   0  0  0  0  0  0  0  0  0  0  0  0
   36.3660  -42.0825    5.8070 N   0  0  0  0  0  0  0  0  0  0  0  0
   37.4978  -42.4095    6.4287 C   0  0  0  0  0  0  0  0  0  0  0  0
   38.4468  -41.4583    6.9932 C   0  0  0  0  0  0  0  0  0  0  0  0
   39.4948  -41.8623    7.7991 C   0  0  0  0  0  0  0  0  0  0  0  0
   40.3680  -40.9235    8.3104 C   0  0  0  0  0  0  0  0  0  0  0  0
   40.2322  -39.5769    8.0435 C   0  0  0  0  0  0  0  0  0  0  0  0
   39.2052  -39.2069    7.2570 N   0  0  0  0  0  0  0  0  0  0  0  0
   38.3430  -40.1054    6.7485 C   0  0  0  0  0  0  0  0  0  0  0  0
   37.5480  -43.7163    6.4106 O   0  0  0  0  0  0  0  0  0  0  0  0
   38.0254  -47.4208    6.0239 N   0  0  0  0  0  0  0  0  0  0  0  0
   38.8356  -48.1949    6.9263 C   0  0  0  0  0  0  0  0  0  0  0  0
   39.7630  -47.2549    7.6600 C   0  0  0  0  0  0  0  0  0  0  0  0
   40.9404  -46.8025    7.2679 N   0  0  0  0  0  0  0  0  0  0  0  0
   41.6164  -45.9932    8.0405 C   0  0  0  0  0  0  0  0  0  0  0  0
   42.8820  -45.4393    7.7417 C   0  0  0  0  0  0  0  0  0  0  0  0
   43.4703  -44.6126    8.6366 C   0  0  0  0  0  0  0  0  0  0  0  0
   42.9430  -44.2370    9.8622 C   0  0  0  0  0  0  0  0  0  0  0  0
   41.6991  -44.7895   10.1411 C   0  0  0  0  0  0  0  0  0  0  0  0
   41.0547  -45.6512    9.2406 C   0  0  0  0  0  0  0  0  0  0  0  0
   39.5832  -46.5147    9.1896 S   0  0  0  0  0  0  0  0  0  0  0  0
  1  2  2  0  0  0  0
  2  3  1  0  0  0  0
  2 15  1  0  0  0  0
  3  4  1  0  0  0  0
  4  5  2  0  0  0  0
  5  6  1  0  0  0  0
  6  7  2  0  0  0  0
  7  8  1  0  0  0  0
  7 14  1  0  0  0  0
  8  9  2  0  0  0  0
  9 10  1  0  0  0  0
 10 11  2  0  0  0  0
 11 12  1  0  0  0  0
 12 13  2  0  0  0  0
 13  8  1  0  0  0  0
 14  4  1  0  0  0  0
 15 16  1  0  0  0  0
 16 17  1  0  0  0  0
 17 18  2  0  0  0  0
 18 19  1  0  0  0  0
 19 20  2  0  0  0  0
 20 21  1  0  0  0  0
 21 22  2  0  0  0  0
 22 23  1  0  0  0  0
 23 24  2  0  0  0  0
 24 25  1  0  0  0  0
 24 19  1  0  0  0  0
 25 17  1  0  0  0  0
M  END
>  <CHROM.1>
61.51296386,-163.17850129,169.99192517,-66.50859743,-85.16107335,39.19650238
-44.31721076,7.49033535,1.06596298,0.49607959,3.11518997

>  <Name>
design_4

>  <RI>
0

>  <Rbt.Current_Directory>
/home/ziqiaoxu/icml18-jtnn/VAEdesign

>  <Rbt.Executable>
rbdock ($Id: //depot/dev/client3/rdock/2013.1/src/exe/rbdock.cxx#4 $)

>  <Rbt.Library>
libRbt.so (2013.1, Build901 2013/11/27)

>  <Rbt.Parameter_File>
/export/apps/rDock/src/rDock_2013.1_src//data/scripts/dock.prm

>  <Rbt.Receptor>
/home/ziqiaoxu/icml18-jtnn/VAEdesign/targets/RdRp-SARS-CoV-2/pocket_docking.prm

>  <SCORE>
-19.915

>  <SCORE.INTER>
-19.0911

>  <SCORE.INTER.CONST>
1

>  <SCORE.INTER.POLAR>
-0.92852

>  <SCORE.INTER.REPUL>
0.00872836

>  <SCORE.INTER.ROT>
5

>  <SCORE.INTER.VDW>
-26.3778

>  <SCORE.INTER.norm>
-0.763643

>  <SCORE.INTRA>
-0.823944

>  <SCORE.INTRA.DIHEDRAL>
0.401718

>  <SCORE.INTRA.DIHEDRAL.0>
5.2267

>  <SCORE.INTRA.POLAR>
0

>  <SCORE.INTRA.POLAR.0>
0

>  <SCORE.INTRA.REPUL>
0

>  <SCORE.INTRA.REPUL.0>
0

>  <SCORE.INTRA.VDW>
-1.0248

>  <SCORE.INTRA.VDW.0>
-1.58267

>  <SCORE.INTRA.norm>
-0.0329577

>  <SCORE.RESTR>
0

>  <SCORE.RESTR.CAVITY>
0

>  <SCORE.RESTR.norm>
0

>  <SCORE.SYSTEM>
0

>  <SCORE.SYSTEM.CONST>
0

>  <SCORE.SYSTEM.DIHEDRAL>
0

>  <SCORE.SYSTEM.norm>
0

>  <SCORE.heavy>
25

>  <SCORE.norm>
-0.796601

$$$$
design_10
 OpenBabel05252019093D

 25 27  0  0  0  0  0  0  0  0999 V2000
   41.7129  -45.3580    9.2181 O   0  0  0  0  0  0  0  0  0  0  0  0
   41.7787  -46.0331    8.1072 C   0  0  0  0  0  0  0  0  0  0  0  0
   42.9552  -45.8360    7.3528 N   0  0  0  0  0  0  0  0  0  0  0  0
   44.0142  -44.9297    7.7780 C   0  0  0  0  0  0  0  0  0  0  0  0
   44.6431  -44.2619    6.5761 C   0  0  0  0  0  0  0  0  0  0  0  0
   45.3186  -45.2256    5.7107 N   0  0  0  0  0  0  0  0  0  0  0  0
   45.2029  -45.0889    4.3273 C   0  0  0  0  0  0  0  0  0  0  0  0
   44.4871  -44.1226    3.8812 O   0  0  0  0  0  0  0  0  0  0  0  0
   45.7868  -45.9140    3.2864 C   0  0  0  0  0  0  0  0  0  0  0  0
   46.9464  -46.6447    3.5986 C   0  0  0  0  0  0  0  0  0  0  0  0
   47.5901  -47.3551    2.6168 C   0  0  0  0  0  0  0  0  0  0  0  0
   47.1193  -47.3619    1.3450 C   0  0  0  0  0  0  0  0  0  0  0  0
   45.9800  -46.6574    0.9997 C   0  0  0  0  0  0  0  0  0  0  0  0
   45.4917  -46.6878   -0.2775 C   0  0  0  0  0  0  0  0  0  0  0  0
   44.3428  -46.0256   -0.6575 C   0  0  0  0  0  0  0  0  0  0  0  0
   43.6762  -45.3108    0.3033 C   0  0  0  0  0  0  0  0  0  0  0  0
   44.1587  -45.2639    1.6215 C   0  0  0  0  0  0  0  0  0  0  0  0
   45.3115  -45.9275    1.9929 C   0  0  0  0  0  0  0  0  0  0  0  0
   40.6626  -46.8874    7.7923 C   0  0  0  0  0  0  0  0  0  0  0  0
   40.6005  -47.4920    6.5504 C   0  0  0  0  0  0  0  0  0  0  0  0
   39.5431  -48.2989    6.1458 C   0  0  0  0  0  0  0  0  0  0  0  0
   38.4998  -48.5005    7.0467 C   0  0  0  0  0  0  0  0  0  0  0  0
   38.5718  -47.9015    8.2659 C   0  0  0  0  0  0  0  0  0  0  0  0
   39.6372  -47.0936    8.6640 C   0  0  0  0  0  0  0  0  0  0  0  0
   39.5889  -46.5824    9.9137 F   0  0  0  0  0  0  0  0  0  0  0  0
  1  2  2  0  0  0  0
  2  3  1  0  0  0  0
  2 19  1  0  0  0  0
  3  4  1  0  0  0  0
  4  5  1  0  0  0  0
  5  6  1  0  0  0  0
  6  7  1  0  0  0  0
  7  8  2  0  0  0  0
  7  9  1  0  0  0  0
  9 10  2  0  0  0  0
 10 11  1  0  0  0  0
 11 12  2  0  0  0  0
 12 13  1  0  0  0  0
 13 14  2  0  0  0  0
 14 15  1  0  0  0  0
 15 16  2  0  0  0  0
 16 17  1  0  0  0  0
 17 18  2  0  0  0  0
 18  9  1  0  0  0  0
 18 13  1  0  0  0  0
 19 20  2  0  0  0  0
 20 21  1  0  0  0  0
 21 22  2  0  0  0  0
 22 23  1  0  0  0  0
 23 24  2  0  0  0  0
 24 25  1  0  0  0  0
 24 19  1  0  0  0  0
M  END
>  <CHROM.1>
-144.92281116,-64.47579319,139.44354749,-24.16318636,171.73703524,43.28813019
-46.23470421,5.03441718,-2.32425628,-0.40918959,-1.82159616

>  <Name>
design_10

>  <RI>
0

>  <Rbt.Current_Directory>
/home/ziqiaoxu/icml18-jtnn/VAEdesign

>  <Rbt.Executable>
rbdock ($Id: //depot/dev/client3/rdock/2013.1/src/exe/rbdock.cxx#4 $)

>  <Rbt.Library>
libRbt.so (2013.1, Build901 2013/11/27)

>  <Rbt.Parameter_File>
/export/apps/rDock/src/rDock_2013.1_src//data/scripts/dock.prm

>  <Rbt.Receptor>
/home/ziqiaoxu/icml18-jtnn/VAEdesign/targets/RdRp-SARS-CoV-2/pocket_docking.prm

>  <SCORE>
-20.4903

>  <SCORE.INTER>
-18.9923

>  <SCORE.INTER.CONST>
1

>  <SCORE.INTER.POLAR>
-0.894427

>  <SCORE.INTER.REPUL>
0.00428577

>  <SCORE.INTER.ROT>
5

>  <SCORE.INTER.VDW>
-26.3727

>  <SCORE.INTER.norm>
-0.759693

>  <SCORE.INTRA>
-1.49799

>  <SCORE.INTRA.DIHEDRAL>
-6.27557

>  <SCORE.INTRA.DIHEDRAL.0>
10.7002

>  <SCORE.INTRA.POLAR>
0

>  <SCORE.INTRA.POLAR.0>
0

>  <SCORE.INTRA.REPUL>
0

>  <SCORE.INTRA.REPUL.0>
0

>  <SCORE.INTRA.VDW>
1.6398

>  <SCORE.INTRA.VDW.0>
-1.2895

>  <SCORE.INTRA.norm>
-0.0599195

>  <SCORE.RESTR>
0

>  <SCORE.RESTR.CAVITY>
0

>  <SCORE.RESTR.norm>
0

>  <SCORE.SYSTEM>
0

>  <SCORE.SYSTEM.CONST>
0

>  <SCORE.SYSTEM.DIHEDRAL>
0

>  <SCORE.SYSTEM.norm>
0

>  <SCORE.heavy>
25

>  <SCORE.norm>
-0.819612

$$$$
design_4
 OpenBabel05252019093D

 25 27  0  0  0  0  0  0  0  0999 V2000
   40.2002  -45.9465   10.8838 N   0  0  0  0  0  0  0  0  0  0  0  0
   40.8664  -45.7329    9.6541 C   0  0  0  0  0  0  0  0  0  0  0  0
   41.7830  -44.8853    9.5950 O   0  0  0  0  0  0  0  0  0  0  0  0
   40.4828  -46.4957    8.4672 C   0  0  0  0  0  0  0  0  0  0  0  0
   39.4867  -47.4456    8.5371 C   0  0  0  0  0  0  0  0  0  0  0  0
   39.1288  -48.1576    7.4164 C   0  0  0  0  0  0  0  0  0  0  0  0
   39.7866  -47.9046    6.2095 C   0  0  0  0  0  0  0  0  0  0  0  0
   40.7774  -46.9774    6.0734 C   0  0  0  0  0  0  0  0  0  0  0  0
   41.4671  -46.6140    4.8900 N   0  0  0  0  0  0  0  0  0  0  0  0
   42.3710  -45.5810    4.7530 C   0  0  0  0  0  0  0  0  0  0  0  0
   42.6767  -44.8071    5.7420 O   0  0  0  0  0  0  0  0  0  0  0  0
   43.0477  -45.3055    3.4688 C   0  0  0  0  0  0  0  0  0  0  0  0
   44.3570  -45.8479    3.3855 N   0  0  0  0  0  0  0  0  0  0  0  0
   44.9742  -46.0784    2.0719 C   0  0  0  0  0  0  0  0  0  0  0  0
   44.3324  -45.7229    1.0254 N   0  0  0  0  0  0  0  0  0  0  0  0
   45.3128  -46.1197   -0.3355 S   0  0  0  0  0  0  0  0  0  0  0  0
   44.6806  -47.1222   -1.2491 O   0  0  0  0  0  0  0  0  0  0  0  0
   45.6719  -44.8490   -1.0526 O   0  0  0  0  0  0  0  0  0  0  0  0
   46.6515  -46.7798    0.5714 C   0  0  0  0  0  0  0  0  0  0  0  0
   47.8387  -47.3021    0.1696 C   0  0  0  0  0  0  0  0  0  0  0  0
   48.7383  -47.7632    1.0981 C   0  0  0  0  0  0  0  0  0  0  0  0
   48.3822  -47.6675    2.4266 C   0  0  0  0  0  0  0  0  0  0  0  0
   47.1826  -47.1375    2.8258 C   0  0  0  0  0  0  0  0  0  0  0  0
   46.2622  -46.6682    1.8738 C   0  0  0  0  0  0  0  0  0  0  0  0
   41.0941  -46.2842    7.2658 C   0  0  0  0  0  0  0  0  0  0  0  0
  1  2  1  0  0  0  0
  2  3  2  0  0  0  0
  2  4  1  0  0  0  0
  4  5  2  0  0  0  0
  5  6  1  0  0  0  0
  6  7  2  0  0  0  0
  7  8  1  0  0  0  0
  8  9  1  0  0  0  0
  8 25  2  0  0  0  0
  9 10  1  0  0  0  0
 10 11  2  0  0  0  0
 10 12  1  0  0  0  0
 12 13  1  0  0  0  0
 13 14  1  0  0  0  0
 14 15  2  0  0  0  0
 15 16  1  0  0  0  0
 16 17  2  0  0  0  0
 16 18  2  0  0  0  0
 16 19  1  0  0  0  0
 19 20  2  0  0  0  0
 20 21  1  0  0  0  0
 21 22  2  0  0  0  0
 22 23  1  0  0  0  0
 23 24  2  0  0  0  0
 24 14  1  0  0  0  0
 24 19  1  0  0  0  0
 25  4  1  0  0  0  0
M  END
>  <CHROM.1>
-1.13445118,173.04742239,-98.30717735,158.73856869,3.21316377,43.57725589
-46.38941779,3.99110762,-2.19958436,0.03970217,-1.56323063

>  <Name>
design_4

>  <RI>
0

>  <Rbt.Current_Directory>
/home/ziqiaoxu/icml18-jtnn/VAEdesign

>  <Rbt.Executable>
rbdock ($Id: //depot/dev/client3/rdock/2013.1/src/exe/rbdock.cxx#4 $)

>  <Rbt.Library>
libRbt.so (2013.1, Build901 2013/11/27)

>  <Rbt.Parameter_File>
/export/apps/rDock/src/rDock_2013.1_src//data/scripts/dock.prm

>  <Rbt.Receptor>
/home/ziqiaoxu/icml18-jtnn/VAEdesign/targets/RdRp-SARS-CoV-2/pocket_docking.prm

>  <SCORE>
-31.8494

>  <SCORE.INTER>
-23.2804

>  <SCORE.INTER.CONST>
1

>  <SCORE.INTER.POLAR>
-2.26471

>  <SCORE.INTER.REPUL>
0.0783851

>  <SCORE.INTER.ROT>
5

>  <SCORE.INTER.VDW>
-26.3723

>  <SCORE.INTER.norm>
-0.931215

>  <SCORE.INTRA>
-8.56904

>  <SCORE.INTRA.DIHEDRAL>
-16.4465

>  <SCORE.INTRA.DIHEDRAL.0>
20.4097

>  <SCORE.INTRA.POLAR>
0

>  <SCORE.INTRA.POLAR.0>
0

>  <SCORE.INTRA.REPUL>
0

>  <SCORE.INTRA.REPUL.0>
0

>  <SCORE.INTRA.VDW>
-0.345776

>  <SCORE.INTRA.VDW.0>
0.530021

>  <SCORE.INTRA.norm>
-0.342762

>  <SCORE.RESTR>
0

>  <SCORE.RESTR.CAVITY>
0

>  <SCORE.RESTR.norm>
0

>  <SCORE.SYSTEM>
0

>  <SCORE.SYSTEM.CONST>
0

>  <SCORE.SYSTEM.DIHEDRAL>
0

>  <SCORE.SYSTEM.norm>
0

>  <SCORE.heavy>
25

>  <SCORE.norm>
-1.27398

$$$$
design_10
 OpenBabel05252019093D

 26 28  0  0  0  0  0  0  0  0999 V2000
   39.8016  -46.3239   10.4920 N   0  0  0  0  0  0  0  0  0  0  0  0
   39.9572  -45.7373    9.2115 C   0  0  0  0  0  0  0  0  0  0  0  0
   40.1283  -44.4988    9.1386 O   0  0  0  0  0  0  0  0  0  0  0  0
   39.9168  -46.5680    8.0199 C   0  0  0  0  0  0  0  0  0  0  0  0
   39.4071  -47.8588    8.0656 C   0  0  0  0  0  0  0  0  0  0  0  0
   39.3531  -48.6745    6.9552 C   0  0  0  0  0  0  0  0  0  0  0  0
   39.8344  -48.1676    5.7420 C   0  0  0  0  0  0  0  0  0  0  0  0
   40.3501  -46.8935    5.6441 C   0  0  0  0  0  0  0  0  0  0  0  0
   40.8361  -46.3922    4.4314 N   0  0  0  0  0  0  0  0  0  0  0  0
   41.5872  -45.1947    4.2542 C   0  0  0  0  0  0  0  0  0  0  0  0
   42.9158  -45.4609    3.5682 C   0  0  0  0  0  0  0  0  0  0  0  0
   43.9659  -45.4062    4.2324 O   0  0  0  0  0  0  0  0  0  0  0  0
   42.8880  -45.7590    2.2002 N   0  0  0  0  0  0  0  0  0  0  0  0
   43.9692  -46.0460    1.3382 C   0  0  0  0  0  0  0  0  0  0  0  0
   43.8635  -46.0195   -0.0217 C   0  0  0  0  0  0  0  0  0  0  0  0
   45.0035  -46.3361   -0.7696 C   0  0  0  0  0  0  0  0  0  0  0  0
   46.2028  -46.6660   -0.1675 C   0  0  0  0  0  0  0  0  0  0  0  0
   46.3211  -46.6957    1.2050 C   0  0  0  0  0  0  0  0  0  0  0  0
   47.5530  -47.0265    1.8431 N   0  0  0  0  0  0  0  0  0  0  0  0
   48.6787  -47.5859    1.1660 C   0  0  0  0  0  0  0  0  0  0  0  0
   50.0189  -47.1392    1.7110 C   0  0  0  0  0  0  0  0  0  0  0  0
   50.0887  -47.1202    3.1987 C   0  0  0  0  0  0  0  0  0  0  0  0
   48.8209  -47.5272    3.8735 C   0  0  0  0  0  0  0  0  0  0  0  0
   47.6601  -46.7850    3.2704 C   0  0  0  0  0  0  0  0  0  0  0  0
   45.1980  -46.3840    1.9300 C   0  0  0  0  0  0  0  0  0  0  0  0
   40.3749  -46.1269    6.7971 C   0  0  0  0  0  0  0  0  0  0  0  0
  1  2  1  0  0  0  0
  2  3  2  0  0  0  0
  2  4  1  0  0  0  0
  4  5  2  0  0  0  0
  5  6  1  0  0  0  0
  6  7  2  0  0  0  0
  7  8  1  0  0  0  0
  8  9  1  0  0  0  0
  8 26  2  0  0  0  0
  9 10  1  0  0  0  0
 10 11  1  0  0  0  0
 11 12  2  0  0  0  0
 11 13  1  0  0  0  0
 13 14  1  0  0  0  0
 14 15  2  0  0  0  0
 15 16  1  0  0  0  0
 16 17  2  0  0  0  0
 17 18  1  0  0  0  0
 18 19  1  0  0  0  0
 18 25  2  0  0  0  0
 19 20  1  0  0  0  0
 20 21  1  0  0  0  0
 21 22  1  0  0  0  0
 22 23  1  0  0  0  0
 23 24  1  0  0  0  0
 24 19  1  0  0  0  0
 25 14  1  0  0  0  0
 26  4  1  0  0  0  0
M  END
>  <CHROM.1>
16.07640900,-168.76324506,123.51594082,-106.82556822,-164.41407781,-12.01400809
43.66510105,-46.53480998,4.17609366,-2.45399406,0.10205881,-1.50391902

>  <Name>
design_10

>  <RI>
0

>  <Rbt.Current_Directory>
/home/ziqiaoxu/icml18-jtnn/VAEdesign

>  <Rbt.Executable>
rbdock ($Id: //depot/dev/client3/rdock/2013.1/src/exe/rbdock.cxx#4 $)

>  <Rbt.Library>
libRbt.so (2013.1, Build901 2013/11/27)

>  <Rbt.Parameter_File>
/export/apps/rDock/src/rDock_2013.1_src//data/scripts/dock.prm

>  <Rbt.Receptor>
/home/ziqiaoxu/icml18-jtnn/VAEdesign/targets/RdRp-SARS-CoV-2/pocket_docking.prm

>  <SCORE>
-25.5495

>  <SCORE.INTER>
-26.4392

>  <SCORE.INTER.CONST>
1

>  <SCORE.INTER.POLAR>
-3.40136

>  <SCORE.INTER.REPUL>
0.018564

>  <SCORE.INTER.ROT>
6

>  <SCORE.INTER.VDW>
-26.3674

>  <SCORE.INTER.norm>
-1.01689

>  <SCORE.INTRA>
0.889706

>  <SCORE.INTRA.DIHEDRAL>
2.121

>  <SCORE.INTRA.DIHEDRAL.0>
4.56292

>  <SCORE.INTRA.POLAR>
0

>  <SCORE.INTRA.POLAR.0>
0

>  <SCORE.INTRA.REPUL>
0

>  <SCORE.INTRA.REPUL.0>
0

>  <SCORE.INTRA.VDW>
-0.170795

>  <SCORE.INTRA.VDW.0>
1.14807

>  <SCORE.INTRA.norm>
0.0342195

>  <SCORE.RESTR>
0

>  <SCORE.RESTR.CAVITY>
0

>  <SCORE.RESTR.norm>
0

>  <SCORE.SYSTEM>
0

>  <SCORE.SYSTEM.CONST>
0

>  <SCORE.SYSTEM.DIHEDRAL>
0

>  <SCORE.SYSTEM.norm>
0

>  <SCORE.heavy>
26

>  <SCORE.norm>
-0.982674

$$$$
design_3
 OpenBabel05252019093D

 26 28  0  0  0  0  0  0  0  0999 V2000
   38.2903  -46.5388    8.5172 C   0  0  0  0  0  0  0  0  0  0  0  0
   39.6449  -47.0170    8.9384 C   0  0  0  0  0  0  0  0  0  0  0  0
   40.6102  -46.7185    7.8971 N   0  0  0  0  0  0  0  0  0  0  0  0
   41.7392  -45.9032    8.1095 C   0  0  0  0  0  0  0  0  0  0  0  0
   41.9101  -45.4235    9.2568 O   0  0  0  0  0  0  0  0  0  0  0  0
   42.6717  -45.6265    7.0258 C   0  0  0  0  0  0  0  0  0  0  0  0
   43.9485  -45.1554    7.3115 C   0  0  0  0  0  0  0  0  0  0  0  0
   44.8047  -44.9481    6.2614 C   0  0  0  0  0  0  0  0  0  0  0  0
   44.4410  -45.1890    4.9654 C   0  0  0  0  0  0  0  0  0  0  0  0
   43.1623  -45.6638    4.6415 C   0  0  0  0  0  0  0  0  0  0  0  0
   42.8687  -45.9443    3.2915 N   0  0  0  0  0  0  0  0  0  0  0  0
   43.7844  -45.7509    2.2614 C   0  0  0  0  0  0  0  0  0  0  0  0
   43.3760  -45.0175    1.0388 C   0  0  0  0  0  0  0  0  0  0  0  0
   43.1527  -45.8593    0.0865 O   0  0  0  0  0  0  0  0  0  0  0  0
   43.2219  -43.6508    0.8240 N   0  0  0  0  0  0  0  0  0  0  0  0
   43.0770  -42.3659    0.6220 C   0  0  0  0  0  0  0  0  0  0  0  0
   42.0427  -41.5985    1.1795 C   0  0  0  0  0  0  0  0  0  0  0  0
   41.9475  -40.2376    1.1365 C   0  0  0  0  0  0  0  0  0  0  0  0
   42.9304  -39.5476    0.5026 C   0  0  0  0  0  0  0  0  0  0  0  0
   43.9779  -40.2092   -0.0744 C   0  0  0  0  0  0  0  0  0  0  0  0
   44.8926  -39.4402   -0.7141 N   0  0  0  0  0  0  0  0  0  0  0  0
   45.9480  -39.9750   -1.3482 C   0  0  0  0  0  0  0  0  0  0  0  0
   46.0579  -41.3433   -1.3194 C   0  0  0  0  0  0  0  0  0  0  0  0
   45.1344  -42.1350   -0.6719 C   0  0  0  0  0  0  0  0  0  0  0  0
   44.0516  -41.5861   -0.0183 C   0  0  0  0  0  0  0  0  0  0  0  0
   42.3212  -45.8631    5.7066 C   0  0  0  0  0  0  0  0  0  0  0  0
  1  2  1  0  0  0  0
  2  3  1  0  0  0  0
  3  4  1  0  0  0  0
  4  5  2  0  0  0  0
  4  6  1  0  0  0  0
  6  7  2  0  0  0  0
  7  8  1  0  0  0  0
  8  9  2  0  0  0  0
  9 10  1  0  0  0  0
 10 11  1  0  0  0  0
 10 26  2  0  0  0  0
 11 12  1  0  0  0  0
 12 13  1  0  0  0  0
 13 14  2  0  0  0  0
 13 15  1  0  0  0  0
 15 16  1  0  0  0  0
 16 17  2  0  0  0  0
 17 18  1  0  0  0  0
 18 19  2  0  0  0  0
 19 20  1  0  0  0  0
 20 21  2  0  0  0  0
 21 22  1  0  0  0  0
 22 23  2  0  0  0  0
 23 24  1  0  0  0  0
 24 25  2  0  0  0  0
 25 16  1  0  0  0  0
 25 20  1  0  0  0  0
 26  6  1  0  0  0  0
M  END
>  <CHROM.1>
120.45480657,-161.85831321,-1.06134933,-131.01925010,-102.41393078,175.27914757
43.01791537,-43.87837162,3.35162651,2.14351320,-0.98500751,2.61607371

>  <Name>
design_3

>  <RI>
0

>  <Rbt.Current_Directory>
/home/ziqiaoxu/icml18-jtnn/VAEdesign

>  <Rbt.Executable>
rbdock ($Id: //depot/dev/client3/rdock/2013.1/src/exe/rbdock.cxx#4 $)

>  <Rbt.Library>
libRbt.so (2013.1, Build901 2013/11/27)

>  <Rbt.Parameter_File>
/export/apps/rDock/src/rDock_2013.1_src//data/scripts/dock.prm

>  <Rbt.Receptor>
/home/ziqiaoxu/icml18-jtnn/VAEdesign/targets/RdRp-SARS-CoV-2/pocket_docking.prm

>  <SCORE>
-24.3829

>  <SCORE.INTER>
-21.614

>  <SCORE.INTER.CONST>
1

>  <SCORE.INTER.POLAR>
-2.00935

>  <SCORE.INTER.REPUL>
0.036006

>  <SCORE.INTER.ROT>
6

>  <SCORE.INTER.VDW>
-26.3623

>  <SCORE.INTER.norm>
-0.831309

>  <SCORE.INTRA>
-2.76883

>  <SCORE.INTRA.DIHEDRAL>
-6.71032

>  <SCORE.INTRA.DIHEDRAL.0>
18.02

>  <SCORE.INTRA.POLAR>
0

>  <SCORE.INTRA.POLAR.0>
0

>  <SCORE.INTRA.REPUL>
0

>  <SCORE.INTRA.REPUL.0>
0

>  <SCORE.INTRA.VDW>
0.586325

>  <SCORE.INTRA.VDW.0>
-0.914738

>  <SCORE.INTRA.norm>
-0.106494

>  <SCORE.RESTR>
0

>  <SCORE.RESTR.CAVITY>
0

>  <SCORE.RESTR.norm>
0

>  <SCORE.SYSTEM>
0

>  <SCORE.SYSTEM.CONST>
0

>  <SCORE.SYSTEM.DIHEDRAL>
0

>  <SCORE.SYSTEM.norm>
0

>  <SCORE.heavy>
26

>  <SCORE.norm>
-0.937802

$$$$
design_12
 OpenBabel05252019093D

 25 26  0  0  0  0  0  0  0  0999 V2000
   35.1896  -41.3929    5.9873 C   0  0  0  0  0  0  0  0  0  0  0  0
   35.6613  -42.3614    5.0540 O   0  0  0  0  0  0  0  0  0  0  0  0
   36.3911  -43.4182    5.6134 C   0  0  0  0  0  0  0  0  0  0  0  0
   35.8922  -44.7405    5.5476 C   0  0  0  0  0  0  0  0  0  0  0  0
   36.6188  -45.7571    6.0782 C   0  0  0  0  0  0  0  0  0  0  0  0
   37.8270  -45.5684    6.6793 C   0  0  0  0  0  0  0  0  0  0  0  0
   38.6386  -46.7782    7.0976 C   0  0  0  0  0  0  0  0  0  0  0  0
   38.3103  -46.7752    8.5883 C   0  0  0  0  0  0  0  0  0  0  0  0
   37.3585  -47.1410    9.1422 O   0  0  0  0  0  0  0  0  0  0  0  0
   39.4524  -46.1595    9.3925 N   0  0  0  0  0  0  0  0  0  0  0  0
   40.3672  -45.6655   10.0412 C   0  0  0  0  0  0  0  0  0  0  0  0
   41.5812  -45.4917    9.0572 C   0  0  0  0  0  0  0  0  0  0  0  0
   41.6648  -46.3268    7.9698 C   0  0  0  0  0  0  0  0  0  0  0  0
   42.5836  -46.0814    6.9778 C   0  0  0  0  0  0  0  0  0  0  0  0
   43.4343  -44.9913    7.0511 C   0  0  0  0  0  0  0  0  0  0  0  0
   44.4896  -44.6396    5.6806 S   0  0  0  0  0  0  0  0  0  0  0  0
   44.5019  -43.1293    5.4978 O   0  0  0  0  0  0  0  0  0  0  0  0
   45.9298  -44.9849    6.0811 O   0  0  0  0  0  0  0  0  0  0  0  0
   44.1451  -45.4024    4.2606 N   0  0  0  0  0  0  0  0  0  0  0  0
   45.1635  -45.5001    3.3181 C   0  0  0  0  0  0  0  0  0  0  0  0
   42.8044  -45.5024    3.9084 C   0  0  0  0  0  0  0  0  0  0  0  0
   43.3510  -44.1573    8.1457 C   0  0  0  0  0  0  0  0  0  0  0  0
   42.4021  -44.4298    9.1614 C   0  0  0  0  0  0  0  0  0  0  0  0
   38.3488  -44.3050    6.7760 C   0  0  0  0  0  0  0  0  0  0  0  0
   37.5941  -43.2743    6.2255 C   0  0  0  0  0  0  0  0  0  0  0  0
  1  2  1  0  0  0  0
  2  3  1  0  0  0  0
  3  4  2  0  0  0  0
  4  5  1  0  0  0  0
  5  6  2  0  0  0  0
  6  7  1  0  0  0  0
  6 24  1  0  0  0  0
  7  8  1  0  0  0  0
  8  9  2  0  0  0  0
  8 10  1  0  0  0  0
 10 11  1  0  0  0  0
 11 12  1  0  0  0  0
 12 13  2  0  0  0  0
 13 14  1  0  0  0  0
 14 15  2  0  0  0  0
 15 16  1  0  0  0  0
 15 22  1  0  0  0  0
 16 17  2  0  0  0  0
 16 18  2  0  0  0  0
 16 19  1  0  0  0  0
 19 20  1  0  0  0  0
 19 21  1  0  0  0  0
 22 23  2  0  0  0  0
 23 12  1  0  0  0  0
 24 25  2  0  0  0  0
 25  3  1  0  0  0  0
M  END
>  <CHROM.1>
115.39903244,-101.08950345,78.28117404,174.82150373,-26.09397220,139.62718773
-159.48640716,40.64023641,-44.92097038,6.67738088,3.07367072,-0.12798465
2.10404600

>  <Name>
design_12

>  <RI>
0

>  <Rbt.Current_Directory>
/home/ziqiaoxu/icml18-jtnn/VAEdesign

>  <Rbt.Executable>
rbdock ($Id: //depot/dev/client3/rdock/2013.1/src/exe/rbdock.cxx#4 $)

>  <Rbt.Library>
libRbt.so (2013.1, Build901 2013/11/27)

>  <Rbt.Parameter_File>
/export/apps/rDock/src/rDock_2013.1_src//data/scripts/dock.prm

>  <Rbt.Receptor>
/home/ziqiaoxu/icml18-jtnn/VAEdesign/targets/RdRp-SARS-CoV-2/pocket_docking.prm

>  <SCORE>
-19.6207

>  <SCORE.INTER>
-17.1486

>  <SCORE.INTER.CONST>
1

>  <SCORE.INTER.POLAR>
-1.01331

>  <SCORE.INTER.REPUL>
0.0506021

>  <SCORE.INTER.ROT>
7

>  <SCORE.INTER.VDW>
-26.3563

>  <SCORE.INTER.norm>
-0.685942

>  <SCORE.INTRA>
-2.47215

>  <SCORE.INTRA.DIHEDRAL>
3.26509

>  <SCORE.INTRA.DIHEDRAL.0>
5.07897

>  <SCORE.INTRA.POLAR>
0

>  <SCORE.INTRA.POLAR.0>
0

>  <SCORE.INTRA.REPUL>
0

>  <SCORE.INTRA.REPUL.0>
0

>  <SCORE.INTRA.VDW>
-4.1047

>  <SCORE.INTRA.VDW.0>
2.92102

>  <SCORE.INTRA.norm>
-0.0988861

>  <SCORE.RESTR>
0

>  <SCORE.RESTR.CAVITY>
0

>  <SCORE.RESTR.norm>
0

>  <SCORE.SYSTEM>
0

>  <SCORE.SYSTEM.CONST>
0

>  <SCORE.SYSTEM.DIHEDRAL>
0

>  <SCORE.SYSTEM.norm>
0

>  <SCORE.heavy>
25

>  <SCORE.norm>
-0.784829

$$$$
design_14
 OpenBabel05252019093D

 22 23  0  0  0  0  0  0  0  0999 V2000
   41.4983  -44.3882   10.7778 C   0  0  0  0  0  0  0  0  0  0  0  0
   41.0258  -45.2617    9.6716 C   0  0  0  0  0  0  0  0  0  0  0  0
   41.7982  -45.5211    8.5636 C   0  0  0  0  0  0  0  0  0  0  0  0
   41.3630  -46.3442    7.5130 C   0  0  0  0  0  0  0  0  0  0  0  0
   40.1322  -46.9347    7.5431 C   0  0  0  0  0  0  0  0  0  0  0  0
   39.5161  -47.9849    6.3135 S   0  0  0  0  0  0  0  0  0  0  0  0
   39.5426  -49.4166    6.7677 O   0  0  0  0  0  0  0  0  0  0  0  0
   40.5331  -47.9710    5.1503 O   0  0  0  0  0  0  0  0  0  0  0  0
   38.0117  -47.4851    5.7372 N   0  0  0  0  0  0  0  0  0  0  0  0
   37.5326  -46.1637    5.8145 C   0  0  0  0  0  0  0  0  0  0  0  0
   36.2518  -45.8988    5.3741 C   0  0  0  0  0  0  0  0  0  0  0  0
   35.8020  -44.6012    5.4551 C   0  0  0  0  0  0  0  0  0  0  0  0
   36.5444  -43.5439    5.9470 C   0  0  0  0  0  0  0  0  0  0  0  0
   36.0168  -42.1889    6.0092 C   0  0  0  0  0  0  0  0  0  0  0  0
   35.3802  -41.6387    4.8810 N   0  0  0  0  0  0  0  0  0  0  0  0
   36.1271  -41.5224    7.0502 O   0  0  0  0  0  0  0  0  0  0  0  0
   37.8200  -43.8599    6.3753 C   0  0  0  0  0  0  0  0  0  0  0  0
   38.8191  -42.5651    7.0123 Cl  0  0  0  0  0  0  0  0  0  0  0  0
   38.3276  -45.1345    6.3211 C   0  0  0  0  0  0  0  0  0  0  0  0
   39.3405  -46.6748    8.6685 C   0  0  0  0  0  0  0  0  0  0  0  0
   38.0094  -47.2858    8.7309 C   0  0  0  0  0  0  0  0  0  0  0  0
   39.7863  -45.8553    9.7046 C   0  0  0  0  0  0  0  0  0  0  0  0
  1  2  1  0  0  0  0
  2  3  2  0  0  0  0
  3  4  1  0  0  0  0
  4  5  2  0  0  0  0
  5  6  1  0  0  0  0
  5 20  1  0  0  0  0
  6  7  2  0  0  0  0
  6  8  2  0  0  0  0
  6  9  1  0  0  0  0
  9 10  1  0  0  0  0
 10 11  2  0  0  0  0
 11 12  1  0  0  0  0
 12 13  2  0  0  0  0
 13 14  1  0  0  0  0
 13 17  1  0  0  0  0
 14 15  1  0  0  0  0
 14 16  2  0  0  0  0
 17 18  1  0  0  0  0
 17 19  2  0  0  0  0
 19 10  1  0  0  0  0
 20 21  1  0  0  0  0
 20 22  2  0  0  0  0
 22  2  1  0  0  0  0
M  END
>  <CHROM.1>
105.07762798,23.34673876,-176.36003683,-48.04302412,38.65240593,-45.35431625
6.99704530,-0.63254902,-0.72273088,0.39329474

>  <Name>
design_14

>  <RI>
0

>  <Rbt.Current_Directory>
/home/ziqiaoxu/icml18-jtnn/VAEdesign

>  <Rbt.Executable>
rbdock ($Id: //depot/dev/client3/rdock/2013.1/src/exe/rbdock.cxx#4 $)

>  <Rbt.Library>
libRbt.so (2013.1, Build901 2013/11/27)

>  <Rbt.Parameter_File>
/export/apps/rDock/src/rDock_2013.1_src//data/scripts/dock.prm

>  <Rbt.Receptor>
/home/ziqiaoxu/icml18-jtnn/VAEdesign/targets/RdRp-SARS-CoV-2/pocket_docking.prm

>  <SCORE>
-24.0235

>  <SCORE.INTER>
-21.9412

>  <SCORE.INTER.CONST>
1

>  <SCORE.INTER.POLAR>
-1.46888

>  <SCORE.INTER.REPUL>
0

>  <SCORE.INTER.ROT>
4

>  <SCORE.INTER.VDW>
-26.347

>  <SCORE.INTER.norm>
-0.997327

>  <SCORE.INTRA>
-2.0823

>  <SCORE.INTRA.DIHEDRAL>
1.83502

>  <SCORE.INTRA.DIHEDRAL.0>
7.68254

>  <SCORE.INTRA.POLAR>
0

>  <SCORE.INTRA.POLAR.0>
0

>  <SCORE.INTRA.REPUL>
0

>  <SCORE.INTRA.REPUL.0>
0

>  <SCORE.INTRA.VDW>
-2.99981

>  <SCORE.INTRA.VDW.0>
0.670249

>  <SCORE.INTRA.norm>
-0.0946501

>  <SCORE.RESTR>
0

>  <SCORE.RESTR.CAVITY>
0

>  <SCORE.RESTR.norm>
0

>  <SCORE.SYSTEM>
0

>  <SCORE.SYSTEM.CONST>
0

>  <SCORE.SYSTEM.DIHEDRAL>
0

>  <SCORE.SYSTEM.norm>
0

>  <SCORE.heavy>
22

>  <SCORE.norm>
-1.09198

$$$$
design_19
 OpenBabel05252019093D

 24 27  0  0  0  0  0  0  0  0999 V2000
   38.7778  -42.2776    6.1213 C   0  0  0  0  0  0  0  0  0  0  0  0
   38.0525  -43.5771    6.2873 C   0  0  0  0  0  0  0  0  0  0  0  0
   36.9388  -43.8879    5.5390 C   0  0  0  0  0  0  0  0  0  0  0  0
   36.2526  -45.0762    5.6717 C   0  0  0  0  0  0  0  0  0  0  0  0
   36.6843  -46.0064    6.5875 C   0  0  0  0  0  0  0  0  0  0  0  0
   37.7914  -45.7444    7.3595 C   0  0  0  0  0  0  0  0  0  0  0  0
   38.3608  -46.8538    8.5622 S   0  0  0  0  0  0  0  0  0  0  0  0
   39.0114  -47.9999    7.8266 O   0  0  0  0  0  0  0  0  0  0  0  0
   37.2180  -47.4690    9.3367 O   0  0  0  0  0  0  0  0  0  0  0  0
   39.4141  -46.1064    9.6518 N   0  0  0  0  0  0  0  0  0  0  0  0
   40.7227  -45.6185    9.4272 C   0  0  0  0  0  0  0  0  0  0  0  0
   41.4161  -44.7874   10.2786 C   0  0  0  0  0  0  0  0  0  0  0  0
   42.6923  -44.3182    9.9992 C   0  0  0  0  0  0  0  0  0  0  0  0
   43.3042  -44.6868    8.8299 C   0  0  0  0  0  0  0  0  0  0  0  0
   42.6684  -45.5093    7.9424 C   0  0  0  0  0  0  0  0  0  0  0  0
   41.4055  -45.9574    8.2480 C   0  0  0  0  0  0  0  0  0  0  0  0
   43.4569  -45.7387    6.8637 N   0  0  0  0  0  0  0  0  0  0  0  0
   44.5992  -45.0528    7.0773 C   0  0  0  0  0  0  0  0  0  0  0  0
   45.7835  -44.9879    6.1712 C   0  0  0  0  0  0  0  0  0  0  0  0
   45.8013  -43.9745    5.0693 C   0  0  0  0  0  0  0  0  0  0  0  0
   45.5702  -45.4480    4.7602 C   0  0  0  0  0  0  0  0  0  0  0  0
   44.5030  -44.4226    8.2593 N   0  0  0  0  0  0  0  0  0  0  0  0
   45.5042  -43.5669    8.8904 C   0  0  0  0  0  0  0  0  0  0  0  0
   38.4598  -44.5270    7.1945 C   0  0  0  0  0  0  0  0  0  0  0  0
  1  2  1  0  0  0  0
  2  3  2  0  0  0  0
  3  4  1  0  0  0  0
  4  5  2  0  0  0  0
  5  6  1  0  0  0  0
  6  7  1  0  0  0  0
  6 24  2  0  0  0  0
  7  8  2  0  0  0  0
  7  9  2  0  0  0  0
  7 10  1  0  0  0  0
 10 11  1  0  0  0  0
 11 12  2  0  0  0  0
 12 13  1  0  0  0  0
 13 14  2  0  0  0  0
 14 15  1  0  0  0  0
 15 16  2  0  0  0  0
 15 17  1  0  0  0  0
 16 11  1  0  0  0  0
 17 18  2  0  0  0  0
 18 19  1  0  0  0  0
 18 22  1  0  0  0  0
 19 20  1  0  0  0  0
 20 21  1  0  0  0  0
 21 19  1  0  0  0  0
 22 23  1  0  0  0  0
 22 14  1  0  0  0  0
 24  2  1  0  0  0  0
M  END
>  <CHROM.1>
73.84167109,-69.08226735,166.16176934,85.69339833,40.86192021,-45.26796807
7.64768337,3.02306554,0.11034105,2.07339932

>  <Name>
design_19

>  <RI>
0

>  <Rbt.Current_Directory>
/home/ziqiaoxu/icml18-jtnn/VAEdesign

>  <Rbt.Executable>
rbdock ($Id: //depot/dev/client3/rdock/2013.1/src/exe/rbdock.cxx#4 $)

>  <Rbt.Library>
libRbt.so (2013.1, Build901 2013/11/27)

>  <Rbt.Parameter_File>
/export/apps/rDock/src/rDock_2013.1_src//data/scripts/dock.prm

>  <Rbt.Receptor>
/home/ziqiaoxu/icml18-jtnn/VAEdesign/targets/RdRp-SARS-CoV-2/pocket_docking.prm

>  <SCORE>
-24.1866

>  <SCORE.INTER>
-20.4131

>  <SCORE.INTER.CONST>
1

>  <SCORE.INTER.POLAR>
-1.0198

>  <SCORE.INTER.REPUL>
0

>  <SCORE.INTER.ROT>
4

>  <SCORE.INTER.VDW>
-26.3458

>  <SCORE.INTER.norm>
-0.850547

>  <SCORE.INTRA>
-3.86339

>  <SCORE.INTRA.DIHEDRAL>
-7.42374

>  <SCORE.INTRA.DIHEDRAL.0>
11.5866

>  <SCORE.INTRA.POLAR>
0

>  <SCORE.INTRA.POLAR.0>
0

>  <SCORE.INTRA.REPUL>
0

>  <SCORE.INTRA.REPUL.0>
0

>  <SCORE.INTRA.VDW>
-0.151517

>  <SCORE.INTRA.VDW.0>
-2.66836

>  <SCORE.INTRA.norm>
-0.160974

>  <SCORE.RESTR>
0.0899582

>  <SCORE.RESTR.CAVITY>
0.0899582

>  <SCORE.RESTR.norm>
0.00374826

>  <SCORE.SYSTEM>
0

>  <SCORE.SYSTEM.CONST>
0

>  <SCORE.SYSTEM.DIHEDRAL>
0

>  <SCORE.SYSTEM.norm>
0

>  <SCORE.heavy>
24

>  <SCORE.norm>
-1.00777

$$$$
design_12
 OpenBabel05252019093D

 24 26  0  0  0  0  0  0  0  0999 V2000
   40.0518  -46.2140   10.7177 N   0  0  0  0  0  0  0  0  0  0  0  0
   40.1905  -45.6187    9.3915 C   0  0  0  0  0  0  0  0  0  0  0  0
   39.1730  -45.6587    8.7061 O   0  0  0  0  0  0  0  0  0  0  0  0
   41.4816  -45.0541    9.0255 C   0  0  0  0  0  0  0  0  0  0  0  0
   42.2965  -44.5701   10.0640 C   0  0  0  0  0  0  0  0  0  0  0  0
   43.5329  -44.0940    9.8053 C   0  0  0  0  0  0  0  0  0  0  0  0
   43.9858  -44.0848    8.5334 C   0  0  0  0  0  0  0  0  0  0  0  0
   43.2023  -44.5512    7.5147 C   0  0  0  0  0  0  0  0  0  0  0  0
   41.9211  -45.0558    7.6996 C   0  0  0  0  0  0  0  0  0  0  0  0
   41.0934  -45.4436    6.6453 N   0  0  0  0  0  0  0  0  0  0  0  0
   40.4428  -46.6752    6.4994 C   0  0  0  0  0  0  0  0  0  0  0  0
   40.5464  -47.5760    7.3543 O   0  0  0  0  0  0  0  0  0  0  0  0
   39.5789  -46.9351    5.2625 C   0  0  0  0  0  0  0  0  0  0  0  0
   38.2321  -47.3402    5.7500 C   0  0  0  0  0  0  0  0  0  0  0  0
   36.8764  -46.5628    4.8790 S   0  0  0  0  0  0  0  0  0  0  0  0
   36.7916  -44.8412    5.4281 C   0  0  0  0  0  0  0  0  0  0  0  0
   35.7650  -44.0304    5.4739 N   0  0  0  0  0  0  0  0  0  0  0  0
   35.9011  -42.8079    5.9055 C   0  0  0  0  0  0  0  0  0  0  0  0
   34.8737  -41.8458    6.0007 C   0  0  0  0  0  0  0  0  0  0  0  0
   35.1435  -40.6069    6.4664 C   0  0  0  0  0  0  0  0  0  0  0  0
   36.4111  -40.1745    6.8815 C   0  0  0  0  0  0  0  0  0  0  0  0
   37.4047  -41.1264    6.7824 C   0  0  0  0  0  0  0  0  0  0  0  0
   37.1543  -42.4192    6.3033 C   0  0  0  0  0  0  0  0  0  0  0  0
   38.0613  -43.8406    6.0308 S   0  0  0  0  0  0  0  0  0  0  0  0
  1  2  1  0  0  0  0
  2  3  2  0  0  0  0
  2  4  1  0  0  0  0
  4  5  2  0  0  0  0
  5  6  1  0  0  0  0
  6  7  2  0  0  0  0
  7  8  1  0  0  0  0
  8  9  2  0  0  0  0
  9 10  1  0  0  0  0
  9  4  1  0  0  0  0
 10 11  1  0  0  0  0
 11 12  2  0  0  0  0
 11 13  1  0  0  0  0
 13 14  1  0  0  0  0
 14 15  1  0  0  0  0
 15 16  1  0  0  0  0
 16 17  2  0  0  0  0
 17 18  1  0  0  0  0
 18 19  2  0  0  0  0
 19 20  1  0  0  0  0
 20 21  2  0  0  0  0
 21 22  1  0  0  0  0
 22 23  2  0  0  0  0
 23 24  1  0  0  0  0
 23 18  1  0  0  0  0
 24 16  1  0  0  0  0
M  END
>  <CHROM.1>
-27.72823461,-57.57285053,-125.35860331,135.98858697,-73.99216278,-152.91296588
39.00876921,-44.60790855,7.05253933,-0.19179312,-0.54236857,0.36739212

>  <Name>
design_12

>  <RI>
0

>  <Rbt.Current_Directory>
/home/ziqiaoxu/icml18-jtnn/VAEdesign

>  <Rbt.Executable>
rbdock ($Id: //depot/dev/client3/rdock/2013.1/src/exe/rbdock.cxx#4 $)

>  <Rbt.Library>
libRbt.so (2013.1, Build901 2013/11/27)

>  <Rbt.Parameter_File>
/export/apps/rDock/src/rDock_2013.1_src//data/scripts/dock.prm

>  <Rbt.Receptor>
/home/ziqiaoxu/icml18-jtnn/VAEdesign/targets/RdRp-SARS-CoV-2/pocket_docking.prm

>  <SCORE>
-19.3403

>  <SCORE.INTER>
-22.0408

>  <SCORE.INTER.CONST>
1

>  <SCORE.INTER.POLAR>
-2.0879

>  <SCORE.INTER.REPUL>
0

>  <SCORE.INTER.ROT>
6

>  <SCORE.INTER.VDW>
-26.3419

>  <SCORE.INTER.norm>
-0.918366

>  <SCORE.INTRA>
2.70051

>  <SCORE.INTRA.DIHEDRAL>
13.0427

>  <SCORE.INTRA.DIHEDRAL.0>
6.80878

>  <SCORE.INTRA.POLAR>
0

>  <SCORE.INTRA.POLAR.0>
0

>  <SCORE.INTRA.REPUL>
0

>  <SCORE.INTRA.REPUL.0>
0

>  <SCORE.INTRA.VDW>
-3.82085

>  <SCORE.INTRA.VDW.0>
0.632575

>  <SCORE.INTRA.norm>
0.112521

>  <SCORE.RESTR>
0

>  <SCORE.RESTR.CAVITY>
0

>  <SCORE.RESTR.norm>
0

>  <SCORE.SYSTEM>
0

>  <SCORE.SYSTEM.CONST>
0

>  <SCORE.SYSTEM.DIHEDRAL>
0

>  <SCORE.SYSTEM.norm>
0

>  <SCORE.heavy>
24

>  <SCORE.norm>
-0.805845

$$$$
design_0
 OpenBabel05252019093D

 24 27  0  0  0  0  0  0  0  0999 V2000
   38.1376  -40.2606    7.1709 C   0  0  0  0  0  0  0  0  0  0  0  0
   37.3583  -41.4450    6.6438 C   0  0  0  0  0  0  0  0  0  0  0  0
   37.6811  -42.7191    6.6622 N   0  0  0  0  0  0  0  0  0  0  0  0
   36.8724  -43.6019    6.1543 C   0  0  0  0  0  0  0  0  0  0  0  0
   37.2125  -45.0490    6.1612 C   0  0  0  0  0  0  0  0  0  0  0  0
   36.8144  -45.8922    5.1517 C   0  0  0  0  0  0  0  0  0  0  0  0
   37.1183  -47.2267    5.1417 C   0  0  0  0  0  0  0  0  0  0  0  0
   37.8491  -47.7665    6.1712 C   0  0  0  0  0  0  0  0  0  0  0  0
   38.2732  -46.9920    7.1997 C   0  0  0  0  0  0  0  0  0  0  0  0
   39.0446  -47.4396    8.3778 C   0  0  0  0  0  0  0  0  0  0  0  0
   39.1622  -48.6824    8.4535 O   0  0  0  0  0  0  0  0  0  0  0  0
   39.5984  -46.4879    9.3113 N   0  0  0  0  0  0  0  0  0  0  0  0
   40.0935  -45.6403   10.1456 C   0  0  2  0  0  0  0  0  0  0  0  0
   40.1541  -44.1004    9.8895 C   0  0  0  0  0  0  0  0  0  0  0  0
   41.3711  -44.8722   10.1062 C   0  0  2  0  0  0  0  0  0  0  0  0
   42.3728  -44.9777    9.0503 C   0  0  0  0  0  0  0  0  0  0  0  0
   43.5661  -44.3027    9.1536 C   0  0  0  0  0  0  0  0  0  0  0  0
   44.5373  -44.3857    8.1519 C   0  0  0  0  0  0  0  0  0  0  0  0
   44.3318  -45.1403    7.0368 C   0  0  0  0  0  0  0  0  0  0  0  0
   43.1362  -45.8228    6.9230 C   0  0  0  0  0  0  0  0  0  0  0  0
   42.1779  -45.7449    7.9071 C   0  0  0  0  0  0  0  0  0  0  0  0
   37.9421  -45.6211    7.1763 C   0  0  0  0  0  0  0  0  0  0  0  0
   35.6968  -43.1453    5.6129 C   0  0  0  0  0  0  0  0  0  0  0  0
   35.8392  -41.4467    5.8776 S   0  0  0  0  0  0  0  0  0  0  0  0
  1  2  1  0  0  0  0
  2  3  2  0  0  0  0
  3  4  1  0  0  0  0
  4  5  1  0  0  0  0
  4 23  2  0  0  0  0
  5  6  2  0  0  0  0
  6  7  1  0  0  0  0
  7  8  2  0  0  0  0
  8  9  1  0  0  0  0
  9 10  1  0  0  0  0
  9 22  2  0  0  0  0
 10 11  2  0  0  0  0
 10 12  1  0  0  0  0
 13 12  1  6  0  0  0
 13 14  1  0  0  0  0
 14 15  1  0  0  0  0
 15 16  1  6  0  0  0
 15 13  1  0  0  0  0
 16 17  2  0  0  0  0
 17 18  1  0  0  0  0
 18 19  2  0  0  0  0
 19 20  1  0  0  0  0
 20 21  2  0  0  0  0
 21 16  1  0  0  0  0
 22  5  1  0  0  0  0
 23 24  1  0  0  0  0
 24  2  1  0  0  0  0
M  END
>  <CHROM.1>
-147.13364757,-8.19723887,168.78531289,-175.07198508,39.23207989,-44.75791884
7.42170107,-2.72199642,0.39280034,3.10179661

>  <Name>
design_0

>  <RI>
0

>  <Rbt.Current_Directory>
/home/ziqiaoxu/icml18-jtnn/VAEdesign

>  <Rbt.Executable>
rbdock ($Id: //depot/dev/client3/rdock/2013.1/src/exe/rbdock.cxx#4 $)

>  <Rbt.Library>
libRbt.so (2013.1, Build901 2013/11/27)

>  <Rbt.Parameter_File>
/export/apps/rDock/src/rDock_2013.1_src//data/scripts/dock.prm

>  <Rbt.Receptor>
/home/ziqiaoxu/icml18-jtnn/VAEdesign/targets/RdRp-SARS-CoV-2/pocket_docking.prm

>  <SCORE>
-24.1358

>  <SCORE.INTER>
-21.5788

>  <SCORE.INTER.CONST>
1

>  <SCORE.INTER.POLAR>
-1.36515

>  <SCORE.INTER.REPUL>
0

>  <SCORE.INTER.ROT>
4

>  <SCORE.INTER.VDW>
-26.3373

>  <SCORE.INTER.norm>
-0.899116

>  <SCORE.INTRA>
-2.55702

>  <SCORE.INTRA.DIHEDRAL>
-3.46752

>  <SCORE.INTRA.DIHEDRAL.0>
9.65165

>  <SCORE.INTRA.POLAR>
0

>  <SCORE.INTRA.POLAR.0>
0

>  <SCORE.INTRA.REPUL>
0

>  <SCORE.INTRA.REPUL.0>
0

>  <SCORE.INTRA.VDW>
-0.823258

>  <SCORE.INTRA.VDW.0>
-1.11325

>  <SCORE.INTRA.norm>
-0.106542

>  <SCORE.RESTR>
0

>  <SCORE.RESTR.CAVITY>
0

>  <SCORE.RESTR.norm>
0

>  <SCORE.SYSTEM>
0

>  <SCORE.SYSTEM.CONST>
0

>  <SCORE.SYSTEM.DIHEDRAL>
0

>  <SCORE.SYSTEM.norm>
0

>  <SCORE.heavy>
24

>  <SCORE.norm>
-1.00566

$$$$
design_0
 OpenBabel05252019093D

 24 27  0  0  0  0  0  0  0  0999 V2000
   41.1289  -44.4290   11.0022 C   0  0  0  0  0  0  0  0  0  0  0  0
   40.7320  -45.3540    9.8988 C   0  0  0  0  0  0  0  0  0  0  0  0
   39.5551  -46.0533    9.8675 N   0  0  0  0  0  0  0  0  0  0  0  0
   39.4937  -46.8087    8.7683 C   0  0  0  0  0  0  0  0  0  0  0  0
   38.5274  -47.6926    8.2680 C   0  0  0  0  0  0  0  0  0  0  0  0
   38.6803  -48.3751    7.0887 C   0  0  0  0  0  0  0  0  0  0  0  0
   39.8309  -48.1918    6.3541 C   0  0  0  0  0  0  0  0  0  0  0  0
   40.8041  -47.3117    6.8427 C   0  0  0  0  0  0  0  0  0  0  0  0
   40.6397  -46.6325    8.0276 C   0  0  0  0  0  0  0  0  0  0  0  0
   41.4100  -45.7050    8.7644 C   0  0  0  0  0  0  0  0  0  0  0  0
   42.6961  -45.2316    8.2958 C   0  0  0  0  0  0  0  0  0  0  0  0
   43.2634  -44.2749    8.9509 O   0  0  0  0  0  0  0  0  0  0  0  0
   43.4313  -45.6917    7.1904 N   0  0  0  0  0  0  0  0  0  0  0  0
   44.7198  -45.1915    6.7601 C   0  0  0  0  0  0  0  0  0  0  0  0
   44.6217  -44.6255    5.3889 C   0  0  0  0  0  0  0  0  0  0  0  0
   45.5434  -45.3895    4.4614 C   0  0  0  0  0  0  0  0  0  0  0  0
   45.2773  -45.7723    3.1678 C   0  0  0  0  0  0  0  0  0  0  0  0
   46.3867  -46.4382    2.7079 C   0  0  0  0  0  0  0  0  0  0  0  0
   46.7059  -47.0420    1.5091 C   0  0  0  0  0  0  0  0  0  0  0  0
   47.9159  -47.6595    1.2890 C   0  0  0  0  0  0  0  0  0  0  0  0
   48.8198  -47.6481    2.3478 C   0  0  0  0  0  0  0  0  0  0  0  0
   48.5330  -47.0544    3.5573 C   0  0  0  0  0  0  0  0  0  0  0  0
   47.3025  -46.4375    3.7527 C   0  0  0  0  0  0  0  0  0  0  0  0
   46.7381  -45.8060    4.7439 O   0  0  0  0  0  0  0  0  0  0  0  0
  1  2  1  0  0  0  0
  2  3  1  0  0  0  0
  3  4  1  0  0  0  0
  4  5  2  0  0  0  0
  5  6  1  0  0  0  0
  6  7  2  0  0  0  0
  7  8  1  0  0  0  0
  8  9  2  0  0  0  0
  9 10  1  0  0  0  0
  9  4  1  0  0  0  0
 10 11  1  0  0  0  0
 10  2  2  0  0  0  0
 11 12  2  0  0  0  0
 11 13  1  0  0  0  0
 13 14  1  0  0  0  0
 14 15  1  0  0  0  0
 15 16  1  0  0  0  0
 16 17  2  0  0  0  0
 17 18  1  0  0  0  0
 18 19  2  0  0  0  0
 19 20  1  0  0  0  0
 20 21  2  0  0  0  0
 21 22  1  0  0  0  0
 22 23  2  0  0  0  0
 23 24  1  0  0  0  0
 23 18  1  0  0  0  0
 24 16  1  0  0  0  0
M  END
>  <CHROM.1>
-6.11138975,-118.54414697,-119.38650856,139.61775582,43.45298709,-46.24462075
6.26375653,-2.56129928,-0.41982913,-2.19190086

>  <Name>
design_0

>  <RI>
0

>  <Rbt.Current_Directory>
/home/ziqiaoxu/icml18-jtnn/VAEdesign

>  <Rbt.Executable>
rbdock ($Id: //depot/dev/client3/rdock/2013.1/src/exe/rbdock.cxx#4 $)

>  <Rbt.Library>
libRbt.so (2013.1, Build901 2013/11/27)

>  <Rbt.Parameter_File>
/export/apps/rDock/src/rDock_2013.1_src//data/scripts/dock.prm

>  <Rbt.Receptor>
/home/ziqiaoxu/icml18-jtnn/VAEdesign/targets/RdRp-SARS-CoV-2/pocket_docking.prm

>  <SCORE>
-19.0872

>  <SCORE.INTER>
-20.3996

>  <SCORE.INTER.CONST>
1

>  <SCORE.INTER.POLAR>
-1.0198

>  <SCORE.INTER.REPUL>
0

>  <SCORE.INTER.ROT>
4

>  <SCORE.INTER.VDW>
-26.3323

>  <SCORE.INTER.norm>
-0.849985

>  <SCORE.INTRA>
1.31247

>  <SCORE.INTRA.DIHEDRAL>
5.72633

>  <SCORE.INTRA.DIHEDRAL.0>
1.81474

>  <SCORE.INTRA.POLAR>
0

>  <SCORE.INTRA.POLAR.0>
0

>  <SCORE.INTRA.REPUL>
0

>  <SCORE.INTRA.REPUL.0>
0

>  <SCORE.INTRA.VDW>
-1.55069

>  <SCORE.INTRA.VDW.0>
0.860392

>  <SCORE.INTRA.norm>
0.0546862

>  <SCORE.RESTR>
0

>  <SCORE.RESTR.CAVITY>
0

>  <SCORE.RESTR.norm>
0

>  <SCORE.SYSTEM>
0

>  <SCORE.SYSTEM.CONST>
0

>  <SCORE.SYSTEM.DIHEDRAL>
0

>  <SCORE.SYSTEM.norm>
0

>  <SCORE.heavy>
24

>  <SCORE.norm>
-0.795299

$$$$
design_4
 OpenBabel05252019093D

 26 28  0  0  0  0  0  0  0  0999 V2000
   49.3185  -47.7935    1.3636 C   0  0  0  0  0  0  0  0  0  0  0  0
   47.9770  -47.2541    1.8145 N   0  0  0  0  0  0  0  0  0  0  0  0
   47.8426  -47.0431    3.2160 C   0  0  0  0  0  0  0  0  0  0  0  0
   47.0450  -47.0378    0.8109 C   0  0  0  0  0  0  0  0  0  0  0  0
   47.4207  -47.3265   -0.4223 O   0  0  0  0  0  0  0  0  0  0  0  0
   45.6945  -46.5363    0.8891 C   0  0  0  0  0  0  0  0  0  0  0  0
   44.9068  -46.1722   -0.1793 C   0  0  0  0  0  0  0  0  0  0  0  0
   43.6090  -45.6904   -0.0308 C   0  0  0  0  0  0  0  0  0  0  0  0
   43.0858  -45.5710    1.2370 C   0  0  0  0  0  0  0  0  0  0  0  0
   43.8076  -45.9118    2.3476 C   0  0  0  0  0  0  0  0  0  0  0  0
   43.3197  -45.7791    3.6681 N   0  0  0  0  0  0  0  0  0  0  0  0
   44.0768  -45.5447    4.7950 C   0  0  0  0  0  0  0  0  0  0  0  0
   45.3235  -45.4331    4.7363 O   0  0  0  0  0  0  0  0  0  0  0  0
   43.4848  -45.4076    6.1496 C   0  0  0  0  0  0  0  0  0  0  0  0
   44.1299  -44.6535    7.1163 C   0  0  0  0  0  0  0  0  0  0  0  0
   43.5970  -44.5177    8.3781 C   0  0  0  0  0  0  0  0  0  0  0  0
   42.3946  -45.1335    8.7216 C   0  0  0  0  0  0  0  0  0  0  0  0
   41.7379  -45.8880    7.7731 C   0  0  0  0  0  0  0  0  0  0  0  0
   40.5095  -46.5364    8.0639 N   0  0  0  0  0  0  0  0  0  0  0  0
   39.8262  -46.4015    9.3299 C   0  0  0  0  0  0  0  0  0  0  0  0
   38.3283  -46.3923    8.9941 C   0  0  0  0  0  0  0  0  0  0  0  0
   37.9219  -47.5713    8.4274 O   0  0  0  0  0  0  0  0  0  0  0  0
   38.9082  -48.2849    7.7914 C   0  0  0  0  0  0  0  0  0  0  0  0
   39.8989  -47.3779    7.0596 C   0  0  0  0  0  0  0  0  0  0  0  0
   42.3001  -46.0074    6.5067 C   0  0  0  0  0  0  0  0  0  0  0  0
   45.0996  -46.3888    2.1486 C   0  0  0  0  0  0  0  0  0  0  0  0
  1  2  1  0  0  0  0
  2  3  1  0  0  0  0
  2  4  1  0  0  0  0
  4  5  2  0  0  0  0
  4  6  1  0  0  0  0
  6  7  2  0  0  0  0
  7  8  1  0  0  0  0
  8  9  2  0  0  0  0
  9 10  1  0  0  0  0
 10 11  1  0  0  0  0
 10 26  2  0  0  0  0
 11 12  1  0  0  0  0
 12 13  2  0  0  0  0
 12 14  1  0  0  0  0
 14 15  2  0  0  0  0
 15 16  1  0  0  0  0
 16 17  2  0  0  0  0
 17 18  1  0  0  0  0
 18 19  1  0  0  0  0
 18 25  2  0  0  0  0
 19 20  1  0  0  0  0
 20 21  1  0  0  0  0
 21 22  1  0  0  0  0
 22 23  1  0  0  0  0
 23 24  1  0  0  0  0
 24 19  1  0  0  0  0
 25 14  1  0  0  0  0
 26  6  1  0  0  0  0
M  END
>  <CHROM.1>
169.96150689,-150.51136863,-152.93757402,3.36219297,43.51786351,-46.33358387
4.65837832,-0.81528245,0.13784422,1.41065500

>  <Name>
design_4

>  <RI>
0

>  <Rbt.Current_Directory>
/home/ziqiaoxu/icml18-jtnn/VAEdesign

>  <Rbt.Executable>
rbdock ($Id: //depot/dev/client3/rdock/2013.1/src/exe/rbdock.cxx#4 $)

>  <Rbt.Library>
libRbt.so (2013.1, Build901 2013/11/27)

>  <Rbt.Parameter_File>
/export/apps/rDock/src/rDock_2013.1_src//data/scripts/dock.prm

>  <Rbt.Receptor>
/home/ziqiaoxu/icml18-jtnn/VAEdesign/targets/RdRp-SARS-CoV-2/pocket_docking.prm

>  <SCORE>
-15.388

>  <SCORE.INTER>
-16.932

>  <SCORE.INTER.CONST>
1

>  <SCORE.INTER.POLAR>
0

>  <SCORE.INTER.REPUL>
0

>  <SCORE.INTER.ROT>
4

>  <SCORE.INTER.VDW>
-26.332

>  <SCORE.INTER.norm>
-0.651231

>  <SCORE.INTRA>
1.54403

>  <SCORE.INTRA.DIHEDRAL>
3.79632

>  <SCORE.INTRA.DIHEDRAL.0>
2.25539

>  <SCORE.INTRA.POLAR>
0

>  <SCORE.INTRA.POLAR.0>
0

>  <SCORE.INTRA.REPUL>
0

>  <SCORE.INTRA.REPUL.0>
0

>  <SCORE.INTRA.VDW>
-0.354129

>  <SCORE.INTRA.VDW.0>
2.32166

>  <SCORE.INTRA.norm>
0.0593859

>  <SCORE.RESTR>
0

>  <SCORE.RESTR.CAVITY>
0

>  <SCORE.RESTR.norm>
0

>  <SCORE.SYSTEM>
0

>  <SCORE.SYSTEM.CONST>
0

>  <SCORE.SYSTEM.DIHEDRAL>
0

>  <SCORE.SYSTEM.norm>
0

>  <SCORE.heavy>
26

>  <SCORE.norm>
-0.591845

$$$$
design_15
 OpenBabel05252019093D

 25 27  0  0  0  0  0  0  0  0999 V2000
   39.6754  -48.6764    6.5847 C   0  0  0  0  0  0  0  0  0  0  0  0
   39.9322  -47.5759    7.5551 C   0  0  0  0  0  0  0  0  0  0  0  0
   41.0154  -46.7429    7.3591 C   0  0  0  0  0  0  0  0  0  0  0  0
   41.2524  -45.7301    8.2505 C   0  0  0  0  0  0  0  0  0  0  0  0
   40.3930  -45.5814    9.3167 C   0  0  0  0  0  0  0  0  0  0  0  0
   40.6712  -44.4721   10.2723 C   0  0  0  0  0  0  0  0  0  0  0  0
   39.6809  -43.3827    9.9569 C   0  0  0  0  0  0  0  0  0  0  0  0
   40.3407  -42.2404    9.5193 O   0  0  0  0  0  0  0  0  0  0  0  0
   39.7975  -41.0528    9.0930 C   0  0  0  0  0  0  0  0  0  0  0  0
   38.5481  -40.9595    9.0271 O   0  0  0  0  0  0  0  0  0  0  0  0
   40.6242  -39.8863    8.7118 C   0  0  0  0  0  0  0  0  0  0  0  0
   40.4647  -39.5712    7.3547 N   0  0  0  0  0  0  0  0  0  0  0  0
   39.3778  -38.7978    6.9273 C   0  0  0  0  0  0  0  0  0  0  0  0
   39.2488  -38.9205    5.4001 C   0  0  0  0  0  0  0  0  0  0  0  0
   40.5011  -38.7178    4.7365 N   0  0  0  0  0  0  0  0  0  0  0  0
   40.7326  -37.7723    3.7280 C   0  0  0  0  0  0  0  0  0  0  0  0
   39.6936  -37.1078    3.1390 C   0  0  0  0  0  0  0  0  0  0  0  0
   40.0065  -36.1793    2.1441 C   0  0  0  0  0  0  0  0  0  0  0  0
   41.3142  -35.9530    1.7817 C   0  0  0  0  0  0  0  0  0  0  0  0
   42.3518  -36.6277    2.3816 C   0  0  0  0  0  0  0  0  0  0  0  0
   42.0582  -37.5449    3.3628 C   0  0  0  0  0  0  0  0  0  0  0  0
   41.5930  -39.5919    5.1815 C   0  0  0  0  0  0  0  0  0  0  0  0
   41.1235  -40.3567    6.3797 C   0  0  0  0  0  0  0  0  0  0  0  0
   39.3101  -46.4030    9.5251 C   0  0  0  0  0  0  0  0  0  0  0  0
   39.0802  -47.4178    8.6238 C   0  0  0  0  0  0  0  0  0  0  0  0
  1  2  1  0  0  0  0
  2  3  2  0  0  0  0
  3  4  1  0  0  0  0
  4  5  2  0  0  0  0
  5  6  1  0  0  0  0
  5 24  1  0  0  0  0
  6  7  1  0  0  0  0
  7  8  1  0  0  0  0
  8  9  1  0  0  0  0
  9 10  2  0  0  0  0
  9 11  1  0  0  0  0
 11 12  1  0  0  0  0
 12 13  1  0  0  0  0
 13 14  1  0  0  0  0
 14 15  1  0  0  0  0
 15 16  1  0  0  0  0
 15 22  1  0  0  0  0
 16 17  2  0  0  0  0
 17 18  1  0  0  0  0
 18 19  2  0  0  0  0
 19 20  1  0  0  0  0
 20 21  2  0  0  0  0
 21 16  1  0  0  0  0
 22 23  1  0  0  0  0
 23 12  1  0  0  0  0
 24 25  2  0  0  0  0
 25  2  1  0  0  0  0
M  END
>  <CHROM.1>
103.35138134,-116.43825129,177.55490134,-2.93817105,115.97729615,82.57363565
-11.11909460,40.33344912,-41.48862815,6.70417335,-1.99377962,1.37096447,-0.10828764

>  <Name>
design_15

>  <RI>
0

>  <Rbt.Current_Directory>
/home/ziqiaoxu/icml18-jtnn/VAEdesign

>  <Rbt.Executable>
rbdock ($Id: //depot/dev/client3/rdock/2013.1/src/exe/rbdock.cxx#4 $)

>  <Rbt.Library>
libRbt.so (2013.1, Build901 2013/11/27)

>  <Rbt.Parameter_File>
/export/apps/rDock/src/rDock_2013.1_src//data/scripts/dock.prm

>  <Rbt.Receptor>
/home/ziqiaoxu/icml18-jtnn/VAEdesign/targets/RdRp-SARS-CoV-2/pocket_docking.prm

>  <SCORE>
-11.341

>  <SCORE.INTER>
-13.9284

>  <SCORE.INTER.CONST>
1

>  <SCORE.INTER.POLAR>
0

>  <SCORE.INTER.REPUL>
0

>  <SCORE.INTER.ROT>
7

>  <SCORE.INTER.VDW>
-26.3284

>  <SCORE.INTER.norm>
-0.557134

>  <SCORE.INTRA>
2.58735

>  <SCORE.INTRA.DIHEDRAL>
5.91972

>  <SCORE.INTRA.DIHEDRAL.0>
2.78835

>  <SCORE.INTRA.POLAR>
0

>  <SCORE.INTRA.POLAR.0>
0

>  <SCORE.INTRA.REPUL>
0

>  <SCORE.INTRA.REPUL.0>
0

>  <SCORE.INTRA.VDW>
-0.372507

>  <SCORE.INTRA.VDW.0>
1.99869

>  <SCORE.INTRA.norm>
0.103494

>  <SCORE.RESTR>
0

>  <SCORE.RESTR.CAVITY>
0

>  <SCORE.RESTR.norm>
0

>  <SCORE.SYSTEM>
0

>  <SCORE.SYSTEM.CONST>
0

>  <SCORE.SYSTEM.DIHEDRAL>
0

>  <SCORE.SYSTEM.norm>
0

>  <SCORE.heavy>
25

>  <SCORE.norm>
-0.45364

$$$$
design_15
 OpenBabel05252019093D

 25 27  0  0  0  0  0  0  0  0999 V2000
   47.0423  -46.0644   11.3201 N   0  0  0  0  0  0  0  0  0  0  0  0
   46.1167  -45.0829   11.7700 C   0  0  0  0  0  0  0  0  0  0  0  0
   44.9855  -45.4757   12.1301 O   0  0  0  0  0  0  0  0  0  0  0  0
   46.4603  -43.6377   11.8187 C   0  0  0  0  0  0  0  0  0  0  0  0
   46.6378  -43.1152   10.4297 C   0  0  0  0  0  0  0  0  0  0  0  0
   45.3777  -43.2158    9.6240 C   0  0  0  0  0  0  0  0  0  0  0  0
   45.3674  -44.3816    8.8064 N   0  0  0  0  0  0  0  0  0  0  0  0
   44.7488  -44.2682    7.4836 C   0  0  0  0  0  0  0  0  0  0  0  0
   44.2722  -43.1580    7.1618 O   0  0  0  0  0  0  0  0  0  0  0  0
   44.7080  -45.3757    6.6366 N   0  0  0  0  0  0  0  0  0  0  0  0
   44.1779  -45.4695    5.3524 C   0  0  0  0  0  0  0  0  0  0  0  0
   44.9420  -45.3404    4.2156 C   0  0  0  0  0  0  0  0  0  0  0  0
   44.4259  -45.4774    2.9279 C   0  0  0  0  0  0  0  0  0  0  0  0
   43.0855  -45.7552    2.8148 C   0  0  0  0  0  0  0  0  0  0  0  0
   42.3154  -45.8853    3.9438 C   0  0  0  0  0  0  0  0  0  0  0  0
   42.8015  -45.7540    5.2206 C   0  0  0  0  0  0  0  0  0  0  0  0
   41.9718  -45.8611    6.3643 N   0  0  0  0  0  0  0  0  0  0  0  0
   42.0139  -45.0376    7.5514 C   0  0  0  0  0  0  0  0  0  0  0  0
   41.3340  -45.8485    8.6194 C   0  0  0  0  0  0  0  0  0  0  0  0
   40.5160  -46.8150    7.8845 C   0  0  0  0  0  0  0  0  0  0  0  0
   39.4798  -47.6748    8.2958 C   0  0  0  0  0  0  0  0  0  0  0  0
   38.8847  -48.4939    7.3702 C   0  0  0  0  0  0  0  0  0  0  0  0
   39.2902  -48.4816    6.0525 C   0  0  0  0  0  0  0  0  0  0  0  0
   40.3024  -47.6464    5.6332 C   0  0  0  0  0  0  0  0  0  0  0  0
   40.9113  -46.8101    6.5733 C   0  0  0  0  0  0  0  0  0  0  0  0
  1  2  1  0  0  0  0
  2  3  2  0  0  0  0
  2  4  1  0  0  0  0
  4  5  1  0  0  0  0
  5  6  1  0  0  0  0
  6  7  1  0  0  0  0
  7  8  1  0  0  0  0
  8  9  2  0  0  0  0
  8 10  1  0  0  0  0
 10 11  1  0  0  0  0
 11 12  2  0  0  0  0
 12 13  1  0  0  0  0
 13 14  2  0  0  0  0
 14 15  1  0  0  0  0
 15 16  2  0  0  0  0
 16 17  1  0  0  0  0
 16 11  1  0  0  0  0
 17 18  1  0  0  0  0
 18 19  1  0  0  0  0
 19 20  1  0  0  0  0
 20 21  2  0  0  0  0
 21 22  1  0  0  0  0
 22 23  2  0  0  0  0
 23 24  1  0  0  0  0
 24 25  2  0  0  0  0
 25 17  1  0  0  0  0
 25 20  1  0  0  0  0
M  END
>  <CHROM.1>
67.21559531,62.41783128,-97.17656213,-143.73218693,96.22992217,39.69699911
43.38239168,-45.56292062,7.54782197,0.73061494,0.52134206,1.63351110

>  <Name>
design_15

>  <RI>
0

>  <Rbt.Current_Directory>
/home/ziqiaoxu/icml18-jtnn/VAEdesign

>  <Rbt.Executable>
rbdock ($Id: //depot/dev/client3/rdock/2013.1/src/exe/rbdock.cxx#4 $)

>  <Rbt.Library>
libRbt.so (2013.1, Build901 2013/11/27)

>  <Rbt.Parameter_File>
/export/apps/rDock/src/rDock_2013.1_src//data/scripts/dock.prm

>  <Rbt.Receptor>
/home/ziqiaoxu/icml18-jtnn/VAEdesign/targets/RdRp-SARS-CoV-2/pocket_docking.prm

>  <SCORE>
-21.1051

>  <SCORE.INTER>
-25.2765

>  <SCORE.INTER.CONST>
1

>  <SCORE.INTER.POLAR>
-3.127

>  <SCORE.INTER.REPUL>
0.0558528

>  <SCORE.INTER.ROT>
6

>  <SCORE.INTER.VDW>
-26.324

>  <SCORE.INTER.norm>
-1.01106

>  <SCORE.INTRA>
4.17138

>  <SCORE.INTRA.DIHEDRAL>
10.2568

>  <SCORE.INTRA.DIHEDRAL.0>
13.9261

>  <SCORE.INTRA.POLAR>
0

>  <SCORE.INTRA.POLAR.0>
0

>  <SCORE.INTRA.REPUL>
0

>  <SCORE.INTRA.REPUL.0>
0

>  <SCORE.INTRA.VDW>
-0.957028

>  <SCORE.INTRA.VDW.0>
-0.698815

>  <SCORE.INTRA.norm>
0.166855

>  <SCORE.RESTR>
0

>  <SCORE.RESTR.CAVITY>
0

>  <SCORE.RESTR.norm>
0

>  <SCORE.SYSTEM>
0

>  <SCORE.SYSTEM.CONST>
0

>  <SCORE.SYSTEM.DIHEDRAL>
0

>  <SCORE.SYSTEM.norm>
0

>  <SCORE.heavy>
25

>  <SCORE.norm>
-0.844205

$$$$
design_4
 OpenBabel05252019093D

 23 24  0  0  0  0  0  0  0  0999 V2000
   38.7198  -49.0621    6.1485 C   0  0  0  0  0  0  0  0  0  0  0  0
   39.2637  -48.0996    7.1451 C   0  0  0  0  0  0  0  0  0  0  0  0
   40.4827  -47.5163    6.9821 C   0  0  0  0  0  0  0  0  0  0  0  0
   40.9278  -46.6325    7.9403 C   0  0  0  0  0  0  0  0  0  0  0  0
   40.1386  -46.3641    9.0262 C   0  0  0  0  0  0  0  0  0  0  0  0
   40.6544  -45.2304   10.2856 S   0  0  0  0  0  0  0  0  0  0  0  0
   40.5829  -45.9681   11.5718 O   0  0  0  0  0  0  0  0  0  0  0  0
   42.0896  -44.8469   10.0263 O   0  0  0  0  0  0  0  0  0  0  0  0
   39.6108  -43.8841   10.2180 N   0  0  0  0  0  0  0  0  0  0  0  0
   39.9567  -42.7018    9.5230 C   0  0  0  0  0  0  0  0  0  0  0  0
   40.7447  -42.6622    8.3886 C   0  0  0  0  0  0  0  0  0  0  0  0
   41.0717  -41.5111    7.7020 C   0  0  0  0  0  0  0  0  0  0  0  0
   40.5825  -40.3126    8.1723 C   0  0  0  0  0  0  0  0  0  0  0  0
   41.0064  -38.8240    7.2875 S   0  0  0  0  0  0  0  0  0  0  0  0
   40.0353  -38.6763    5.7567 C   0  0  0  0  0  0  0  0  0  0  0  0
   40.0391  -37.2345    5.2548 C   0  0  0  0  0  0  0  0  0  0  0  0
   40.6522  -39.5379    4.6911 C   0  0  0  0  0  0  0  0  0  0  0  0
   38.5835  -39.0489    6.0146 C   0  0  0  0  0  0  0  0  0  0  0  0
   39.7834  -40.3051    9.3125 C   0  0  0  0  0  0  0  0  0  0  0  0
   39.4715  -41.4621    9.9794 C   0  0  0  0  0  0  0  0  0  0  0  0
   38.6535  -41.4135   11.1389 N   0  0  0  0  0  0  0  0  0  0  0  0
   38.9034  -46.9535    9.1943 C   0  0  0  0  0  0  0  0  0  0  0  0
   38.4573  -47.8322    8.2444 C   0  0  0  0  0  0  0  0  0  0  0  0
  1  2  1  0  0  0  0
  2  3  2  0  0  0  0
  3  4  1  0  0  0  0
  4  5  2  0  0  0  0
  5  6  1  0  0  0  0
  5 22  1  0  0  0  0
  6  7  2  0  0  0  0
  6  8  2  0  0  0  0
  6  9  1  0  0  0  0
  9 10  1  0  0  0  0
 10 11  2  0  0  0  0
 11 12  1  0  0  0  0
 12 13  2  0  0  0  0
 13 14  1  0  0  0  0
 13 19  1  0  0  0  0
 14 15  1  0  0  0  0
 15 16  1  0  0  0  0
 15 17  1  0  0  0  0
 15 18  1  0  0  0  0
 19 20  2  0  0  0  0
 20 21  1  0  0  0  0
 20 10  1  0  0  0  0
 22 23  2  0  0  0  0
 23  2  1  0  0  0  0
M  END
>  <CHROM.1>
-125.01813369,-96.98100504,31.72113904,76.17302608,160.98434060,40.10013932
-43.14985884,8.33799263,1.95521895,1.45677280,2.51506657

>  <Name>
design_4

>  <RI>
0

>  <Rbt.Current_Directory>
/home/ziqiaoxu/icml18-jtnn/VAEdesign

>  <Rbt.Executable>
rbdock ($Id: //depot/dev/client3/rdock/2013.1/src/exe/rbdock.cxx#4 $)

>  <Rbt.Library>
libRbt.so (2013.1, Build901 2013/11/27)

>  <Rbt.Parameter_File>
/export/apps/rDock/src/rDock_2013.1_src//data/scripts/dock.prm

>  <Rbt.Receptor>
/home/ziqiaoxu/icml18-jtnn/VAEdesign/targets/RdRp-SARS-CoV-2/pocket_docking.prm

>  <SCORE>
-21.0586

>  <SCORE.INTER>
-20.4045

>  <SCORE.INTER.CONST>
1

>  <SCORE.INTER.POLAR>
-1.3179

>  <SCORE.INTER.REPUL>
0

>  <SCORE.INTER.ROT>
5

>  <SCORE.INTER.VDW>
-26.3236

>  <SCORE.INTER.norm>
-0.887151

>  <SCORE.INTRA>
-0.654114

>  <SCORE.INTRA.DIHEDRAL>
-1.01533

>  <SCORE.INTRA.DIHEDRAL.0>
9.41866

>  <SCORE.INTRA.POLAR>
0

>  <SCORE.INTRA.POLAR.0>
0

>  <SCORE.INTRA.REPUL>
0

>  <SCORE.INTRA.REPUL.0>
0

>  <SCORE.INTRA.VDW>
-0.146448

>  <SCORE.INTRA.VDW.0>
-2.81012

>  <SCORE.INTRA.norm>
-0.0284397

>  <SCORE.RESTR>
0

>  <SCORE.RESTR.CAVITY>
0

>  <SCORE.RESTR.norm>
0

>  <SCORE.SYSTEM>
0

>  <SCORE.SYSTEM.CONST>
0

>  <SCORE.SYSTEM.DIHEDRAL>
0

>  <SCORE.SYSTEM.norm>
0

>  <SCORE.heavy>
23

>  <SCORE.norm>
-0.915591

$$$$
design_9
 OpenBabel05252019093D

 25 26  0  0  0  0  0  0  0  0999 V2000
   39.8094  -42.8353   10.4198 C   0  0  0  0  0  0  0  0  0  0  0  0
   39.4640  -44.1115    9.6534 C   0  0  0  0  0  0  0  0  0  0  0  0
   40.5958  -45.4175   10.0900 S   0  0  0  0  0  0  0  0  0  0  0  0
   41.9812  -44.9709    9.7033 O   0  0  0  0  0  0  0  0  0  0  0  0
   40.5699  -45.6254   11.6024 O   0  0  0  0  0  0  0  0  0  0  0  0
   40.1068  -46.8303    9.2933 N   0  0  0  0  0  0  0  0  0  0  0  0
   40.2151  -47.0917    7.9020 C   0  0  0  0  0  0  0  0  0  0  0  0
   39.4463  -48.1418    7.3985 C   0  0  0  0  0  0  0  0  0  0  0  0
   39.5186  -48.4715    6.0700 C   0  0  0  0  0  0  0  0  0  0  0  0
   40.3507  -47.7582    5.2634 C   0  0  0  0  0  0  0  0  0  0  0  0
   41.1502  -46.6830    5.7314 C   0  0  0  0  0  0  0  0  0  0  0  0
   41.9958  -46.1132    4.8232 N   0  0  0  0  0  0  0  0  0  0  0  0
   42.8246  -45.5547    3.9336 C   0  0  0  0  0  0  0  0  0  0  0  0
   43.8862  -44.9434    4.1255 O   0  0  0  0  0  0  0  0  0  0  0  0
   42.4639  -45.6579    2.5291 N   0  0  0  0  0  0  0  0  0  0  0  0
   43.2091  -45.1403    1.4461 C   0  0  0  0  0  0  0  0  0  0  0  0
   43.0521  -43.7193    1.1450 C   0  0  0  0  0  0  0  0  0  0  0  0
   42.0214  -42.9401    1.6287 C   0  0  0  0  0  0  0  0  0  0  0  0
   41.9108  -41.5954    1.3001 C   0  0  0  0  0  0  0  0  0  0  0  0
   42.8402  -41.0007    0.4736 C   0  0  0  0  0  0  0  0  0  0  0  0
   43.8703  -41.7654   -0.0134 C   0  0  0  0  0  0  0  0  0  0  0  0
   44.8267  -41.1267   -0.8787 C   0  0  0  0  0  0  0  0  0  0  0  0
   45.6228  -40.6053   -1.5568 N   0  0  0  0  0  0  0  0  0  0  0  0
   43.9614  -43.0955    0.3239 C   0  0  0  0  0  0  0  0  0  0  0  0
   41.0434  -46.3878    7.0735 C   0  0  0  0  0  0  0  0  0  0  0  0
  1  2  1  0  0  0  0
  2  3  1  0  0  0  0
  3  4  2  0  0  0  0
  3  5  2  0  0  0  0
  3  6  1  0  0  0  0
  6  7  1  0  0  0  0
  7  8  2  0  0  0  0
  8  9  1  0  0  0  0
  9 10  2  0  0  0  0
 10 11  1  0  0  0  0
 11 12  1  0  0  0  0
 11 25  2  0  0  0  0
 12 13  1  0  0  0  0
 13 14  2  0  0  0  0
 13 15  1  0  0  0  0
 15 16  1  0  0  0  0
 16 17  1  0  0  0  0
 17 18  2  0  0  0  0
 18 19  1  0  0  0  0
 19 20  2  0  0  0  0
 20 21  1  0  0  0  0
 21 22  1  0  0  0  0
 21 24  2  0  0  0  0
 22 23  3  0  0  0  0
 24 17  1  0  0  0  0
 25  7  1  0  0  0  0
M  END
>  <CHROM.1>
-61.11886997,71.57569379,-163.45895365,-163.67261545,-81.20388103,-15.64373137
41.78385111,-44.76465394,5.21952030,-2.79181987,-1.20890781,-2.40167386

>  <Name>
design_9

>  <RI>
0

>  <Rbt.Current_Directory>
/home/ziqiaoxu/icml18-jtnn/VAEdesign

>  <Rbt.Executable>
rbdock ($Id: //depot/dev/client3/rdock/2013.1/src/exe/rbdock.cxx#4 $)

>  <Rbt.Library>
libRbt.so (2013.1, Build901 2013/11/27)

>  <Rbt.Parameter_File>
/export/apps/rDock/src/rDock_2013.1_src//data/scripts/dock.prm

>  <Rbt.Receptor>
/home/ziqiaoxu/icml18-jtnn/VAEdesign/targets/RdRp-SARS-CoV-2/pocket_docking.prm

>  <SCORE>
-24.5483

>  <SCORE.INTER>
-20.0858

>  <SCORE.INTER.CONST>
1

>  <SCORE.INTER.POLAR>
-1.52817

>  <SCORE.INTER.REPUL>
0.00519968

>  <SCORE.INTER.ROT>
6

>  <SCORE.INTER.VDW>
-26.3161

>  <SCORE.INTER.norm>
-0.803434

>  <SCORE.INTRA>
-4.46483

>  <SCORE.INTRA.DIHEDRAL>
-11.7844

>  <SCORE.INTRA.DIHEDRAL.0>
17.2717

>  <SCORE.INTRA.POLAR>
0

>  <SCORE.INTRA.POLAR.0>
0

>  <SCORE.INTRA.REPUL>
0

>  <SCORE.INTRA.REPUL.0>
0

>  <SCORE.INTRA.VDW>
1.42737

>  <SCORE.INTRA.VDW.0>
-2.2795

>  <SCORE.INTRA.norm>
-0.178593

>  <SCORE.RESTR>
0.00239513

>  <SCORE.RESTR.CAVITY>
0.00239513

>  <SCORE.RESTR.norm>
9.58052e-05

>  <SCORE.SYSTEM>
0

>  <SCORE.SYSTEM.CONST>
0

>  <SCORE.SYSTEM.DIHEDRAL>
0

>  <SCORE.SYSTEM.norm>
0

>  <SCORE.heavy>
25

>  <SCORE.norm>
-0.981931

$$$$
design_11
 OpenBabel05252019093D

 25 28  0  0  0  0  0  0  0  0999 V2000
   44.1374  -43.6718    3.6909 O   0  0  0  0  0  0  0  0  0  0  0  0
   44.2957  -44.9028    3.8187 C   0  0  0  0  0  0  0  0  0  0  0  0
   45.1120  -45.4409    4.9211 C   0  0  0  0  0  0  0  0  0  0  0  0
   44.3687  -45.2643    6.2323 C   0  0  0  0  0  0  0  0  0  0  0  0
   44.8986  -44.4656    7.2133 C   0  0  0  0  0  0  0  0  0  0  0  0
   43.7116  -44.6013    8.4365 S   0  0  0  0  0  0  0  0  0  0  0  0
   42.6321  -45.6509    7.6325 C   0  0  0  0  0  0  0  0  0  0  0  0
   41.3439  -46.2154    8.0970 C   0  0  0  0  0  0  0  0  0  0  0  0
   40.6882  -47.1481    7.3607 C   0  0  0  0  0  0  0  0  0  0  0  0
   39.4965  -47.6275    7.8549 C   0  0  0  0  0  0  0  0  0  0  0  0
   38.9779  -47.2066    9.0193 N   0  0  0  0  0  0  0  0  0  0  0  0
   39.6079  -46.2860    9.7638 C   0  0  0  0  0  0  0  0  0  0  0  0
   40.8232  -45.7783    9.2879 C   0  0  0  0  0  0  0  0  0  0  0  0
   43.2379  -45.8418    6.4701 N   0  0  0  0  0  0  0  0  0  0  0  0
   43.6877  -45.7841    2.8995 N   0  0  0  0  0  0  0  0  0  0  0  0
   42.8957  -45.2764    1.8288 C   0  0  0  0  0  0  0  0  0  0  0  0
   43.6322  -44.2102    1.0570 C   0  0  0  0  0  0  0  0  0  0  0  0
   43.2860  -42.8999    0.8893 C   0  0  0  0  0  0  0  0  0  0  0  0
   44.1200  -42.1292    0.1505 C   0  0  0  0  0  0  0  0  0  0  0  0
   43.9533  -40.7603   -0.1448 C   0  0  0  0  0  0  0  0  0  0  0  0
   44.8575  -40.0941   -0.8963 C   0  0  0  0  0  0  0  0  0  0  0  0
   45.9981  -40.6759   -1.4308 C   0  0  0  0  0  0  0  0  0  0  0  0
   46.1579  -42.0119   -1.1408 C   0  0  0  0  0  0  0  0  0  0  0  0
   45.2326  -42.7271   -0.3620 C   0  0  0  0  0  0  0  0  0  0  0  0
   45.0971  -44.3337    0.1890 S   0  0  0  0  0  0  0  0  0  0  0  0
  1  2  2  0  0  0  0
  2  3  1  0  0  0  0
  2 15  1  0  0  0  0
  3  4  1  0  0  0  0
  4  5  2  0  0  0  0
  5  6  1  0  0  0  0
  6  7  1  0  0  0  0
  7  8  1  0  0  0  0
  7 14  2  0  0  0  0
  8  9  2  0  0  0  0
  9 10  1  0  0  0  0
 10 11  2  0  0  0  0
 11 12  1  0  0  0  0
 12 13  2  0  0  0  0
 13  8  1  0  0  0  0
 14  4  1  0  0  0  0
 15 16  1  0  0  0  0
 16 17  1  0  0  0  0
 17 18  2  0  0  0  0
 18 19  1  0  0  0  0
 19 20  2  0  0  0  0
 20 21  1  0  0  0  0
 21 22  2  0  0  0  0
 22 23  1  0  0  0  0
 23 24  2  0  0  0  0
 24 25  1  0  0  0  0
 24 19  1  0  0  0  0
 25 17  1  0  0  0  0
M  END
>  <CHROM.1>
71.55445000,-116.98285537,-173.19170895,51.17911745,-118.52045460,43.40054934
-44.46319088,4.14608419,-1.13603016,0.56007748,1.75026923

>  <Name>
design_11

>  <RI>
0

>  <Rbt.Current_Directory>
/home/ziqiaoxu/icml18-jtnn/VAEdesign

>  <Rbt.Executable>
rbdock ($Id: //depot/dev/client3/rdock/2013.1/src/exe/rbdock.cxx#4 $)

>  <Rbt.Library>
libRbt.so (2013.1, Build901 2013/11/27)

>  <Rbt.Parameter_File>
/export/apps/rDock/src/rDock_2013.1_src//data/scripts/dock.prm

>  <Rbt.Receptor>
/home/ziqiaoxu/icml18-jtnn/VAEdesign/targets/RdRp-SARS-CoV-2/pocket_docking.prm

>  <SCORE>
-21.376

>  <SCORE.INTER>
-19.153

>  <SCORE.INTER.CONST>
1

>  <SCORE.INTER.POLAR>
-0.952739

>  <SCORE.INTER.REPUL>
0

>  <SCORE.INTER.ROT>
5

>  <SCORE.INTER.VDW>
-26.3137

>  <SCORE.INTER.norm>
-0.766119

>  <SCORE.INTRA>
-2.22298

>  <SCORE.INTRA.DIHEDRAL>
-1.97895

>  <SCORE.INTRA.DIHEDRAL.0>
4.96227

>  <SCORE.INTRA.POLAR>
0

>  <SCORE.INTRA.POLAR.0>
0

>  <SCORE.INTRA.REPUL>
0

>  <SCORE.INTRA.REPUL.0>
0

>  <SCORE.INTRA.VDW>
-1.23351

>  <SCORE.INTRA.VDW.0>
-1.10967

>  <SCORE.INTRA.norm>
-0.0889193

>  <SCORE.RESTR>
0

>  <SCORE.RESTR.CAVITY>
0

>  <SCORE.RESTR.norm>
0

>  <SCORE.SYSTEM>
0

>  <SCORE.SYSTEM.CONST>
0

>  <SCORE.SYSTEM.DIHEDRAL>
0

>  <SCORE.SYSTEM.norm>
0

>  <SCORE.heavy>
25

>  <SCORE.norm>
-0.855039

$$$$
design_12
 OpenBabel05252019093D

 24 26  0  0  0  0  0  0  0  0999 V2000
   39.9002  -42.6338   10.6939 C   0  0  0  0  0  0  0  0  0  0  0  0
   39.6463  -44.0456   10.2608 C   0  0  0  0  0  0  0  0  0  0  0  0
   40.2960  -45.0441   10.8870 N   0  0  0  0  0  0  0  0  0  0  0  0
   40.0230  -46.1782   10.2741 N   0  0  0  0  0  0  0  0  0  0  0  0
   39.2118  -45.9266    9.2336 C   0  0  0  0  0  0  0  0  0  0  0  0
   38.8398  -46.8650    8.2048 C   0  0  0  0  0  0  0  0  0  0  0  0
   39.1280  -48.2507    8.2851 C   0  0  0  0  0  0  0  0  0  0  0  0
   38.7921  -49.0373    7.2171 C   0  0  0  0  0  0  0  0  0  0  0  0
   38.2177  -48.5460    6.0958 C   0  0  0  0  0  0  0  0  0  0  0  0
   38.0311  -47.2050    5.9975 C   0  0  0  0  0  0  0  0  0  0  0  0
   37.2421  -46.6167    4.8494 C   0  0  0  0  0  0  0  0  0  0  0  0
   38.0966  -46.0625    3.9097 N   0  0  0  0  0  0  0  0  0  0  0  0
   38.9157  -45.5309    3.0077 C   0  0  0  0  0  0  0  0  0  0  0  0
   39.0807  -45.3378    1.8840 O   0  0  0  0  0  0  0  0  0  0  0  0
   40.0674  -45.1549    3.9633 C   0  0  0  0  0  0  0  0  0  0  0  0
   40.8541  -46.2437    4.5839 C   0  0  0  0  0  0  0  0  0  0  0  0
   41.9310  -45.9489    5.4803 C   0  0  0  0  0  0  0  0  0  0  0  0
   41.7706  -45.9490    6.8409 C   0  0  0  0  0  0  0  0  0  0  0  0
   42.9495  -45.6635    7.5319 C   0  0  0  0  0  0  0  0  0  0  0  0
   44.1401  -45.4026    7.0010 C   0  0  0  0  0  0  0  0  0  0  0  0
   44.2399  -45.3678    5.5906 C   0  0  0  0  0  0  0  0  0  0  0  0
   43.1043  -45.6526    4.9368 N   0  0  0  0  0  0  0  0  0  0  0  0
   38.3218  -46.3884    7.0320 C   0  0  0  0  0  0  0  0  0  0  0  0
   39.0206  -44.5661    9.2814 N   0  0  0  0  0  0  0  0  0  0  0  0
  1  2  1  0  0  0  0
  2  3  2  0  0  0  0
  3  4  1  0  0  0  0
  4  5  1  0  0  0  0
  5  6  1  0  0  0  0
  5 24  2  0  0  0  0
  6  7  2  0  0  0  0
  7  8  1  0  0  0  0
  8  9  2  0  0  0  0
  9 10  1  0  0  0  0
 10 11  1  0  0  0  0
 10 23  2  0  0  0  0
 11 12  1  0  0  0  0
 12 13  1  0  0  0  0
 13 14  2  0  0  0  0
 13 15  1  0  0  0  0
 15 16  1  0  0  0  0
 16 17  1  0  0  0  0
 17 18  2  0  0  0  0
 18 19  1  0  0  0  0
 19 20  2  0  0  0  0
 20 21  1  0  0  0  0
 21 22  2  0  0  0  0
 22 17  1  0  0  0  0
 23  6  1  0  0  0  0
 24  2  1  0  0  0  0
M  END
>  <CHROM.1>
10.27090579,-103.00039677,157.28671534,68.66806279,-179.84519219,96.44264158
40.06313917,-45.95556557,6.76185013,-1.46315715,-0.33318350,-1.71100375

>  <Name>
design_12

>  <RI>
0

>  <Rbt.Current_Directory>
/home/ziqiaoxu/icml18-jtnn/VAEdesign

>  <Rbt.Executable>
rbdock ($Id: //depot/dev/client3/rdock/2013.1/src/exe/rbdock.cxx#4 $)

>  <Rbt.Library>
libRbt.so (2013.1, Build901 2013/11/27)

>  <Rbt.Parameter_File>
/export/apps/rDock/src/rDock_2013.1_src//data/scripts/dock.prm

>  <Rbt.Receptor>
/home/ziqiaoxu/icml18-jtnn/VAEdesign/targets/RdRp-SARS-CoV-2/pocket_docking.prm

>  <SCORE>
-23.7078

>  <SCORE.INTER>
-21.975

>  <SCORE.INTER.CONST>
1

>  <SCORE.INTER.POLAR>
-2.07799

>  <SCORE.INTER.REPUL>
0

>  <SCORE.INTER.ROT>
6

>  <SCORE.INTER.VDW>
-26.3099

>  <SCORE.INTER.norm>
-0.915625

>  <SCORE.INTRA>
-1.73275

>  <SCORE.INTRA.DIHEDRAL>
-0.712

>  <SCORE.INTRA.DIHEDRAL.0>
4.38833

>  <SCORE.INTRA.POLAR>
0

>  <SCORE.INTRA.POLAR.0>
0

>  <SCORE.INTRA.REPUL>
0

>  <SCORE.INTRA.REPUL.0>
0

>  <SCORE.INTRA.VDW>
-1.37675

>  <SCORE.INTRA.VDW.0>
-2.58359

>  <SCORE.INTRA.norm>
-0.0721979

>  <SCORE.RESTR>
0

>  <SCORE.RESTR.CAVITY>
0

>  <SCORE.RESTR.norm>
0

>  <SCORE.SYSTEM>
0

>  <SCORE.SYSTEM.CONST>
0

>  <SCORE.SYSTEM.DIHEDRAL>
0

>  <SCORE.SYSTEM.norm>
0

>  <SCORE.heavy>
24

>  <SCORE.norm>
-0.987823

$$$$
design_5
 OpenBabel05252019093D

 24 25  0  0  0  0  0  0  0  0999 V2000
   41.7355  -36.3241    2.4240 C   0  0  0  0  0  0  0  0  0  0  0  0
   40.3711  -36.1160    3.0711 C   0  0  0  0  0  0  0  0  0  0  0  0
   40.4348  -36.7474    4.3738 N   0  0  0  0  0  0  0  0  0  0  0  0
   39.7887  -37.9836    4.5609 C   0  0  0  0  0  0  0  0  0  0  0  0
   39.1734  -38.5157    3.6067 O   0  0  0  0  0  0  0  0  0  0  0  0
   39.8249  -38.6589    5.8553 C   0  0  0  0  0  0  0  0  0  0  0  0
   39.1851  -39.8551    6.0889 C   0  0  0  0  0  0  0  0  0  0  0  0
   39.2413  -40.4639    7.3311 C   0  0  0  0  0  0  0  0  0  0  0  0
   39.9319  -39.9136    8.3890 C   0  0  0  0  0  0  0  0  0  0  0  0
   39.9821  -40.5525    9.6658 N   0  0  0  0  0  0  0  0  0  0  0  0
   39.2476  -41.7891    9.8230 C   0  0  0  0  0  0  0  0  0  0  0  0
   40.1652  -42.9183    9.6007 C   0  0  0  0  0  0  0  0  0  0  0  0
   41.2158  -42.7544    8.9375 O   0  0  0  0  0  0  0  0  0  0  0  0
   39.8586  -44.1852   10.1363 N   0  0  0  0  0  0  0  0  0  0  0  0
   40.7378  -45.3134    9.9357 C   0  0  0  0  0  0  0  0  0  0  0  0
   40.2588  -46.2768    8.9237 C   0  0  0  0  0  0  0  0  0  0  0  0
   39.0716  -46.9446    9.0954 C   0  0  0  0  0  0  0  0  0  0  0  0
   38.6384  -47.8514    8.1396 C   0  0  0  0  0  0  0  0  0  0  0  0
   39.3756  -48.1019    7.0111 C   0  0  0  0  0  0  0  0  0  0  0  0
   38.8947  -49.0000    6.1163 F   0  0  0  0  0  0  0  0  0  0  0  0
   40.5635  -47.4319    6.8418 C   0  0  0  0  0  0  0  0  0  0  0  0
   41.0101  -46.5151    7.7999 C   0  0  0  0  0  0  0  0  0  0  0  0
   40.5778  -38.7157    8.1706 C   0  0  0  0  0  0  0  0  0  0  0  0
   40.5189  -38.1142    6.9333 C   0  0  0  0  0  0  0  0  0  0  0  0
  1  2  1  0  0  0  0
  2  3  1  0  0  0  0
  3  4  1  0  0  0  0
  4  5  2  0  0  0  0
  4  6  1  0  0  0  0
  6  7  2  0  0  0  0
  7  8  1  0  0  0  0
  8  9  2  0  0  0  0
  9 10  1  0  0  0  0
  9 23  1  0  0  0  0
 10 11  1  0  0  0  0
 11 12  1  0  0  0  0
 12 13  2  0  0  0  0
 12 14  1  0  0  0  0
 14 15  1  0  0  0  0
 15 16  1  0  0  0  0
 16 17  2  0  0  0  0
 17 18  1  0  0  0  0
 18 19  2  0  0  0  0
 19 20  1  0  0  0  0
 19 21  1  0  0  0  0
 21 22  2  0  0  0  0
 22 16  1  0  0  0  0
 23 24  2  0  0  0  0
 24  6  1  0  0  0  0
M  END
>  <CHROM.1>
-104.55262632,178.69090530,-1.64616907,95.53947111,-22.33939335,-103.76416559
-61.66797991,39.99170030,-42.14385774,7.15771264,0.82946500,-1.48263272,-1.08907978

>  <Name>
design_5

>  <RI>
0

>  <Rbt.Current_Directory>
/home/ziqiaoxu/icml18-jtnn/VAEdesign

>  <Rbt.Executable>
rbdock ($Id: //depot/dev/client3/rdock/2013.1/src/exe/rbdock.cxx#4 $)

>  <Rbt.Library>
libRbt.so (2013.1, Build901 2013/11/27)

>  <Rbt.Parameter_File>
/export/apps/rDock/src/rDock_2013.1_src//data/scripts/dock.prm

>  <Rbt.Receptor>
/home/ziqiaoxu/icml18-jtnn/VAEdesign/targets/RdRp-SARS-CoV-2/pocket_docking.prm

>  <SCORE>
-20.7499

>  <SCORE.INTER>
-18.3266

>  <SCORE.INTER.CONST>
1

>  <SCORE.INTER.POLAR>
-1.3001

>  <SCORE.INTER.REPUL>
0

>  <SCORE.INTER.ROT>
7

>  <SCORE.INTER.VDW>
-26.3063

>  <SCORE.INTER.norm>
-0.763609

>  <SCORE.INTRA>
-2.42327

>  <SCORE.INTRA.DIHEDRAL>
0.00124739

>  <SCORE.INTRA.DIHEDRAL.0>
6.86832

>  <SCORE.INTRA.POLAR>
0

>  <SCORE.INTRA.POLAR.0>
0

>  <SCORE.INTRA.REPUL>
0

>  <SCORE.INTRA.REPUL.0>
0

>  <SCORE.INTRA.VDW>
-2.42389

>  <SCORE.INTRA.VDW.0>
1.91747

>  <SCORE.INTRA.norm>
-0.10097

>  <SCORE.RESTR>
0

>  <SCORE.RESTR.CAVITY>
0

>  <SCORE.RESTR.norm>
0

>  <SCORE.SYSTEM>
0

>  <SCORE.SYSTEM.CONST>
0

>  <SCORE.SYSTEM.DIHEDRAL>
0

>  <SCORE.SYSTEM.norm>
0

>  <SCORE.heavy>
24

>  <SCORE.norm>
-0.864579

$$$$
design_3
 OpenBabel05252019093D

 24 27  0  0  0  0  0  0  0  0999 V2000
   47.7360  -43.6318    6.2214 C   0  0  0  0  0  0  0  0  0  0  0  0
   46.3925  -44.2068    6.6206 C   0  0  0  0  0  0  0  0  0  0  0  0
   45.7513  -44.0543    7.7633 N   0  0  0  0  0  0  0  0  0  0  0  0
   44.6001  -44.6203    7.9428 C   0  0  0  0  0  0  0  0  0  0  0  0
   43.8311  -44.4831    9.2080 C   0  0  0  0  0  0  0  0  0  0  0  0
   44.4595  -43.9964   10.3167 C   0  0  0  0  0  0  0  0  0  0  0  0
   43.7544  -43.8608   11.5097 C   0  0  0  0  0  0  0  0  0  0  0  0
   42.4051  -44.2199   11.5819 C   0  0  0  0  0  0  0  0  0  0  0  0
   41.7885  -44.7079   10.4584 C   0  0  0  0  0  0  0  0  0  0  0  0
   40.3590  -45.0974   10.5136 C   0  0  0  0  0  0  0  0  0  0  0  0
   40.1981  -46.3475    9.8136 N   0  0  0  0  0  0  0  0  0  0  0  0
   39.9986  -46.3894    8.4155 C   0  0  0  0  0  0  0  0  0  0  0  0
   39.9639  -45.3168    7.7810 O   0  0  0  0  0  0  0  0  0  0  0  0
   39.8384  -47.6648    7.7344 C   0  0  1  0  0  0  0  0  0  0  0  0
   38.5609  -48.4294    8.0180 C   0  0  0  0  0  0  0  0  0  0  0  0
   38.8476  -47.9522    6.6736 C   0  0  1  0  0  0  0  0  0  0  0  0
   38.0234  -46.8674    6.0558 C   0  0  0  0  0  0  0  0  0  0  0  0
   38.2026  -46.2993    4.8191 C   0  0  0  0  0  0  0  0  0  0  0  0
   37.3290  -45.3558    4.4425 C   0  0  0  0  0  0  0  0  0  0  0  0
   36.3301  -45.0352    5.3196 C   0  0  0  0  0  0  0  0  0  0  0  0
   36.6394  -46.0587    6.6420 S   0  0  0  0  0  0  0  0  0  0  0  0
   42.5215  -44.8298    9.2852 C   0  0  0  0  0  0  0  0  0  0  0  0
   44.0991  -45.3688    6.9006 C   0  0  0  0  0  0  0  0  0  0  0  0
   45.3325  -45.2010    5.7303 S   0  0  0  0  0  0  0  0  0  0  0  0
  1  2  1  0  0  0  0
  2  3  2  0  0  0  0
  3  4  1  0  0  0  0
  4  5  1  0  0  0  0
  4 23  2  0  0  0  0
  5  6  2  0  0  0  0
  6  7  1  0  0  0  0
  7  8  2  0  0  0  0
  8  9  1  0  0  0  0
  9 10  1  0  0  0  0
  9 22  2  0  0  0  0
 10 11  1  0  0  0  0
 11 12  1  0  0  0  0
 12 13  2  0  0  0  0
 14 12  1  1  0  0  0
 14 15  1  0  0  0  0
 15 16  1  0  0  0  0
 16 17  1  1  0  0  0
 16 14  1  0  0  0  0
 17 18  2  0  0  0  0
 18 19  1  0  0  0  0
 19 20  2  0  0  0  0
 20 21  1  0  0  0  0
 21 17  1  0  0  0  0
 22  5  1  0  0  0  0
 23 24  1  0  0  0  0
 24  2  1  0  0  0  0
M  END
>  <CHROM.1>
-14.39134584,-136.68649647,-85.85135069,68.96264806,103.88365030,41.47968695
-45.44345526,7.72764870,-0.20001677,-0.24323875,-1.67095350

>  <Name>
design_3

>  <RI>
0

>  <Rbt.Current_Directory>
/home/ziqiaoxu/icml18-jtnn/VAEdesign

>  <Rbt.Executable>
rbdock ($Id: //depot/dev/client3/rdock/2013.1/src/exe/rbdock.cxx#4 $)

>  <Rbt.Library>
libRbt.so (2013.1, Build901 2013/11/27)

>  <Rbt.Parameter_File>
/export/apps/rDock/src/rDock_2013.1_src//data/scripts/dock.prm

>  <Rbt.Receptor>
/home/ziqiaoxu/icml18-jtnn/VAEdesign/targets/RdRp-SARS-CoV-2/pocket_docking.prm

>  <SCORE>
-20.998

>  <SCORE.INTER>
-20.6959

>  <SCORE.INTER.CONST>
1

>  <SCORE.INTER.POLAR>
-1.40877

>  <SCORE.INTER.REPUL>
0

>  <SCORE.INTER.ROT>
5

>  <SCORE.INTER.VDW>
-26.3061

>  <SCORE.INTER.norm>
-0.862328

>  <SCORE.INTRA>
-0.302115

>  <SCORE.INTRA.DIHEDRAL>
0.116333

>  <SCORE.INTRA.DIHEDRAL.0>
5.67031

>  <SCORE.INTRA.POLAR>
0

>  <SCORE.INTRA.POLAR.0>
0

>  <SCORE.INTRA.REPUL>
0

>  <SCORE.INTRA.REPUL.0>
0

>  <SCORE.INTRA.VDW>
-0.360281

>  <SCORE.INTRA.VDW.0>
-2.21029

>  <SCORE.INTRA.norm>
-0.0125881

>  <SCORE.RESTR>
0

>  <SCORE.RESTR.CAVITY>
0

>  <SCORE.RESTR.norm>
0

>  <SCORE.SYSTEM>
0

>  <SCORE.SYSTEM.CONST>
0

>  <SCORE.SYSTEM.DIHEDRAL>
0

>  <SCORE.SYSTEM.norm>
0

>  <SCORE.heavy>
24

>  <SCORE.norm>
-0.874916

$$$$
design_1
 OpenBabel05252019093D

 22 23  0  0  0  0  0  0  0  0999 V2000
   39.8234  -36.4688    3.0629 C   0  0  0  0  0  0  0  0  0  0  0  0
   39.6734  -37.5472    4.1001 C   0  0  0  0  0  0  0  0  0  0  0  0
   39.0370  -38.5686    3.7610 O   0  0  0  0  0  0  0  0  0  0  0  0
   40.2446  -37.3445    5.3595 N   0  0  0  0  0  0  0  0  0  0  0  0
   40.1843  -38.2734    6.4244 C   0  0  0  0  0  0  0  0  0  0  0  0
   39.3838  -39.4006    6.2117 C   0  0  0  0  0  0  0  0  0  0  0  0
   39.2759  -40.3337    7.2021 C   0  0  0  0  0  0  0  0  0  0  0  0
   39.9498  -40.1992    8.4450 C   0  0  0  0  0  0  0  0  0  0  0  0
   39.7017  -41.1648    9.3602 N   0  0  0  0  0  0  0  0  0  0  0  0
   39.4577  -42.1144   10.2602 C   0  0  0  0  0  0  0  0  0  0  0  0
   39.1174  -41.9817   11.5086 O   0  0  0  0  0  0  0  0  0  0  0  0
   39.5540  -43.5755    9.9043 C   0  0  0  0  0  0  0  0  0  0  0  0
   40.9464  -44.4160   10.6760 S   0  0  0  0  0  0  0  0  0  0  0  0
   42.1484  -44.7154    9.3605 C   0  0  0  0  0  0  0  0  0  0  0  0
   43.3471  -44.0373    9.3647 C   0  0  0  0  0  0  0  0  0  0  0  0
   44.2765  -44.2076    8.3526 C   0  0  0  0  0  0  0  0  0  0  0  0
   43.9982  -45.0723    7.3194 C   0  0  0  0  0  0  0  0  0  0  0  0
   44.9665  -45.2661    6.1799 C   0  0  0  0  0  0  0  0  0  0  0  0
   42.7934  -45.7365    7.3432 C   0  0  0  0  0  0  0  0  0  0  0  0
   41.9152  -45.5517    8.3366 N   0  0  0  0  0  0  0  0  0  0  0  0
   40.7187  -39.0930    8.6191 C   0  0  0  0  0  0  0  0  0  0  0  0
   40.8319  -38.1333    7.6055 C   0  0  0  0  0  0  0  0  0  0  0  0
  1  2  1  0  0  0  0
  2  3  2  0  0  0  0
  2  4  1  0  0  0  0
  4  5  1  0  0  0  0
  5  6  2  0  0  0  0
  6  7  1  0  0  0  0
  7  8  2  0  0  0  0
  8  9  1  0  0  0  0
  8 21  1  0  0  0  0
  9 10  1  0  0  0  0
 10 11  2  0  0  0  0
 10 12  1  0  0  0  0
 12 13  1  0  0  0  0
 13 14  1  0  0  0  0
 14 15  2  0  0  0  0
 15 16  1  0  0  0  0
 16 17  2  0  0  0  0
 17 18  1  0  0  0  0
 17 19  1  0  0  0  0
 19 20  2  0  0  0  0
 20 14  1  0  0  0  0
 21 22  2  0  0  0  0
 22  5  1  0  0  0  0
M  END
>  <CHROM.1>
-6.38592452,-174.33778650,110.39169438,-107.39791966,111.52595171,40.93931312
-41.64148410,7.82176086,-2.03437796,-0.81833352,2.26670486

>  <Name>
design_1

>  <RI>
0

>  <Rbt.Current_Directory>
/home/ziqiaoxu/icml18-jtnn/VAEdesign

>  <Rbt.Executable>
rbdock ($Id: //depot/dev/client3/rdock/2013.1/src/exe/rbdock.cxx#4 $)

>  <Rbt.Library>
libRbt.so (2013.1, Build901 2013/11/27)

>  <Rbt.Parameter_File>
/export/apps/rDock/src/rDock_2013.1_src//data/scripts/dock.prm

>  <Rbt.Receptor>
/home/ziqiaoxu/icml18-jtnn/VAEdesign/targets/RdRp-SARS-CoV-2/pocket_docking.prm

>  <SCORE>
-21.1403

>  <SCORE.INTER>
-19.5166

>  <SCORE.INTER.CONST>
1

>  <SCORE.INTER.POLAR>
-1.06223

>  <SCORE.INTER.REPUL>
0

>  <SCORE.INTER.ROT>
5

>  <SCORE.INTER.VDW>
-26.3051

>  <SCORE.INTER.norm>
-0.88712

>  <SCORE.INTRA>
-1.62362

>  <SCORE.INTRA.DIHEDRAL>
-6.21571

>  <SCORE.INTRA.DIHEDRAL.0>
15.2185

>  <SCORE.INTRA.POLAR>
0

>  <SCORE.INTRA.POLAR.0>
0

>  <SCORE.INTRA.REPUL>
0

>  <SCORE.INTRA.REPUL.0>
0

>  <SCORE.INTRA.VDW>
1.48423

>  <SCORE.INTRA.VDW.0>
-1.24923

>  <SCORE.INTRA.norm>
-0.073801

>  <SCORE.RESTR>
0

>  <SCORE.RESTR.CAVITY>
0

>  <SCORE.RESTR.norm>
0

>  <SCORE.SYSTEM>
0

>  <SCORE.SYSTEM.CONST>
0

>  <SCORE.SYSTEM.DIHEDRAL>
0

>  <SCORE.SYSTEM.norm>
0

>  <SCORE.heavy>
22

>  <SCORE.norm>
-0.960921

$$$$
design_15
 OpenBabel05252019093D

 26 29  0  0  0  0  0  0  0  0999 V2000
   38.0211  -40.7110    6.9771 O   0  0  0  0  0  0  0  0  0  0  0  0
   38.9532  -39.9176    7.0302 C   0  0  0  0  0  0  0  0  0  0  0  0
   39.7112  -39.7798    8.3538 C   0  0  0  0  0  0  0  0  0  0  0  0
   39.7004  -41.0493    9.0801 C   0  0  0  0  0  0  0  0  0  0  0  0
   38.6001  -41.5117    9.7779 N   0  0  0  0  0  0  0  0  0  0  0  0
   38.9193  -42.6619   10.3030 N   0  0  0  0  0  0  0  0  0  0  0  0
   40.1897  -42.9370    9.9582 C   0  0  0  0  0  0  0  0  0  0  0  0
   40.9724  -44.1462   10.3234 C   0  0  0  0  0  0  0  0  0  0  0  0
   40.5166  -45.2645    9.3968 C   0  0  0  0  0  0  0  0  0  0  0  0
   41.0860  -45.5396    8.1870 N   0  0  0  0  0  0  0  0  0  0  0  0
   40.4413  -46.6149    7.6558 C   0  0  0  0  0  0  0  0  0  0  0  0
   40.5815  -47.3425    6.5040 C   0  0  0  0  0  0  0  0  0  0  0  0
   39.7548  -48.4418    6.2470 C   0  0  0  0  0  0  0  0  0  0  0  0
   38.7823  -48.8313    7.1217 C   0  0  0  0  0  0  0  0  0  0  0  0
   38.6401  -48.0891    8.3007 C   0  0  0  0  0  0  0  0  0  0  0  0
   39.4516  -47.0033    8.5657 C   0  0  0  0  0  0  0  0  0  0  0  0
   39.5630  -46.1340    9.5958 N   0  0  0  0  0  0  0  0  0  0  0  0
   40.6098  -41.9485    9.2320 O   0  0  0  0  0  0  0  0  0  0  0  0
   39.3757  -39.1216    6.0112 N   0  0  0  0  0  0  0  0  0  0  0  0
   39.7694  -38.3514    4.9939 C   0  0  0  0  0  0  0  0  0  0  0  0
   40.4731  -38.6980    3.7809 C   0  0  0  0  0  0  0  0  0  0  0  0
   41.5317  -39.6000    3.7773 C   0  0  0  0  0  0  0  0  0  0  0  0
   42.0506  -40.0471    2.5692 C   0  0  0  0  0  0  0  0  0  0  0  0
   41.5305  -39.6064    1.3504 C   0  0  0  0  0  0  0  0  0  0  0  0
   40.5071  -38.7256    1.3805 C   0  0  0  0  0  0  0  0  0  0  0  0
   39.9806  -38.2732    2.5516 C   0  0  0  0  0  0  0  0  0  0  0  0
  1  2  2  0  0  0  0
  2  3  1  0  0  0  0
  2 19  1  0  0  0  0
  3  4  1  0  0  0  0
  4  5  2  0  0  0  0
  5  6  1  0  0  0  0
  6  7  2  0  0  0  0
  7  8  1  0  0  0  0
  7 18  1  0  0  0  0
  8  9  1  0  0  0  0
  9 10  2  0  0  0  0
 10 11  1  0  0  0  0
 11 12  2  0  0  0  0
 12 13  1  0  0  0  0
 13 14  2  0  0  0  0
 14 15  1  0  0  0  0
 15 16  2  0  0  0  0
 16 17  1  0  0  0  0
 16 11  1  0  0  0  0
 17  9  1  0  0  0  0
 18  4  1  0  0  0  0
 19 20  1  0  0  0  0
 20 21  1  0  0  0  0
 21 22  2  0  0  0  0
 22 23  1  0  0  0  0
 23 24  2  0  0  0  0
 24 25  1  0  0  0  0
 25 26  2  0  0  0  0
 26 21  1  0  0  0  0
M  END
>  <CHROM.1>
30.77321726,-76.92044296,78.60527899,90.17725215,-72.98917578,-41.13941750
39.96464253,-42.66286845,6.92643770,1.17195728,1.37497579,-0.18087281

>  <Name>
design_15

>  <RI>
0

>  <Rbt.Current_Directory>
/home/ziqiaoxu/icml18-jtnn/VAEdesign

>  <Rbt.Executable>
rbdock ($Id: //depot/dev/client3/rdock/2013.1/src/exe/rbdock.cxx#4 $)

>  <Rbt.Library>
libRbt.so (2013.1, Build901 2013/11/27)

>  <Rbt.Parameter_File>
/export/apps/rDock/src/rDock_2013.1_src//data/scripts/dock.prm

>  <Rbt.Receptor>
/home/ziqiaoxu/icml18-jtnn/VAEdesign/targets/RdRp-SARS-CoV-2/pocket_docking.prm

>  <SCORE>
-21.3139

>  <SCORE.INTER>
-21.687

>  <SCORE.INTER.CONST>
1

>  <SCORE.INTER.POLAR>
-1.99485

>  <SCORE.INTER.REPUL>
0

>  <SCORE.INTER.ROT>
6

>  <SCORE.INTER.VDW>
-26.3045

>  <SCORE.INTER.norm>
-0.834114

>  <SCORE.INTRA>
0.373068

>  <SCORE.INTRA.DIHEDRAL>
-0.0750169

>  <SCORE.INTRA.DIHEDRAL.0>
6.41109

>  <SCORE.INTRA.POLAR>
0

>  <SCORE.INTRA.POLAR.0>
0

>  <SCORE.INTRA.REPUL>
0

>  <SCORE.INTRA.REPUL.0>
0

>  <SCORE.INTRA.VDW>
0.410576

>  <SCORE.INTRA.VDW.0>
-2.31523

>  <SCORE.INTRA.norm>
0.0143488

>  <SCORE.RESTR>
0

>  <SCORE.RESTR.CAVITY>
0

>  <SCORE.RESTR.norm>
0

>  <SCORE.SYSTEM>
0

>  <SCORE.SYSTEM.CONST>
0

>  <SCORE.SYSTEM.DIHEDRAL>
0

>  <SCORE.SYSTEM.norm>
0

>  <SCORE.heavy>
26

>  <SCORE.norm>
-0.819765

$$$$
design_12
 OpenBabel05252019093D

 24 26  0  0  0  0  0  0  0  0999 V2000
   40.0332  -46.1691   10.7321 N   0  0  0  0  0  0  0  0  0  0  0  0
   40.1167  -45.8464    9.0306 S   0  0  0  0  0  0  0  0  0  0  0  0
   39.6090  -47.0457    8.2772 O   0  0  0  0  0  0  0  0  0  0  0  0
   39.2334  -44.6774    8.7459 O   0  0  0  0  0  0  0  0  0  0  0  0
   41.7483  -45.4252    8.5968 C   0  0  0  0  0  0  0  0  0  0  0  0
   42.2185  -45.8338    7.3659 C   0  0  0  0  0  0  0  0  0  0  0  0
   43.5195  -45.5082    6.9992 C   0  0  0  0  0  0  0  0  0  0  0  0
   44.2845  -44.7915    7.8794 C   0  0  0  0  0  0  0  0  0  0  0  0
   45.6126  -44.4466    7.5354 N   0  0  0  0  0  0  0  0  0  0  0  0
   45.9043  -43.6309    6.3459 C   0  0  0  0  0  0  0  0  0  0  0  0
   46.5817  -44.5267    5.3752 C   0  0  0  0  0  0  0  0  0  0  0  0
   47.8926  -44.5696    5.0488 N   0  0  0  0  0  0  0  0  0  0  0  0
   48.0925  -45.5031    4.1471 O   0  0  0  0  0  0  0  0  0  0  0  0
   46.9710  -46.0869    3.8562 C   0  0  0  0  0  0  0  0  0  0  0  0
   46.7258  -47.1946    2.8915 C   0  0  0  0  0  0  0  0  0  0  0  0
   45.8439  -46.7309    1.7981 C   0  0  0  0  0  0  0  0  0  0  0  0
   46.3340  -46.7316    0.5065 C   0  0  0  0  0  0  0  0  0  0  0  0
   45.5292  -46.2994   -0.5454 C   0  0  0  0  0  0  0  0  0  0  0  0
   44.2358  -45.8616   -0.3476 C   0  0  0  0  0  0  0  0  0  0  0  0
   43.7558  -45.8645    0.9438 C   0  0  0  0  0  0  0  0  0  0  0  0
   44.5517  -46.2940    2.0016 C   0  0  0  0  0  0  0  0  0  0  0  0
   46.0218  -45.4992    4.6042 N   0  0  0  0  0  0  0  0  0  0  0  0
   43.8041  -44.3902    9.1030 C   0  0  0  0  0  0  0  0  0  0  0  0
   42.5013  -44.7028    9.4987 C   0  0  0  0  0  0  0  0  0  0  0  0
  1  2  1  0  0  0  0
  2  3  2  0  0  0  0
  2  4  2  0  0  0  0
  2  5  1  0  0  0  0
  5  6  2  0  0  0  0
  6  7  1  0  0  0  0
  7  8  2  0  0  0  0
  8  9  1  0  0  0  0
  8 23  1  0  0  0  0
  9 10  1  0  0  0  0
 10 11  1  0  0  0  0
 11 12  2  0  0  0  0
 12 13  1  0  0  0  0
 13 14  1  0  0  0  0
 14 15  1  0  0  0  0
 14 22  2  0  0  0  0
 15 16  1  0  0  0  0
 16 17  2  0  0  0  0
 17 18  1  0  0  0  0
 18 19  2  0  0  0  0
 19 20  1  0  0  0  0
 20 21  2  0  0  0  0
 21 16  1  0  0  0  0
 22 11  1  0  0  0  0
 23 24  2  0  0  0  0
 24  5  1  0  0  0  0
M  END
>  <CHROM.1>
-75.74238220,144.79078403,59.62080689,-110.92416548,-104.91303998,-116.33434666
117.68110262,43.92493770,-45.58701521,5.72659996,2.22643427,0.23336943,1.33325940

>  <Name>
design_12

>  <RI>
0

>  <Rbt.Current_Directory>
/home/ziqiaoxu/icml18-jtnn/VAEdesign

>  <Rbt.Executable>
rbdock ($Id: //depot/dev/client3/rdock/2013.1/src/exe/rbdock.cxx#4 $)

>  <Rbt.Library>
libRbt.so (2013.1, Build901 2013/11/27)

>  <Rbt.Parameter_File>
/export/apps/rDock/src/rDock_2013.1_src//data/scripts/dock.prm

>  <Rbt.Receptor>
/home/ziqiaoxu/icml18-jtnn/VAEdesign/targets/RdRp-SARS-CoV-2/pocket_docking.prm

>  <SCORE>
-21.2562

>  <SCORE.INTER>
-24.3316

>  <SCORE.INTER.CONST>
1

>  <SCORE.INTER.POLAR>
-3.06737

>  <SCORE.INTER.REPUL>
0

>  <SCORE.INTER.ROT>
7

>  <SCORE.INTER.VDW>
-26.3025

>  <SCORE.INTER.norm>
-1.01382

>  <SCORE.INTRA>
3.07538

>  <SCORE.INTRA.DIHEDRAL>
9.68823

>  <SCORE.INTRA.DIHEDRAL.0>
7.25333

>  <SCORE.INTRA.POLAR>
0

>  <SCORE.INTRA.POLAR.0>
0

>  <SCORE.INTRA.REPUL>
0

>  <SCORE.INTRA.REPUL.0>
0

>  <SCORE.INTRA.VDW>
-1.76874

>  <SCORE.INTRA.VDW.0>
-0.714774

>  <SCORE.INTRA.norm>
0.128141

>  <SCORE.RESTR>
0

>  <SCORE.RESTR.CAVITY>
0

>  <SCORE.RESTR.norm>
0

>  <SCORE.SYSTEM>
0

>  <SCORE.SYSTEM.CONST>
0

>  <SCORE.SYSTEM.DIHEDRAL>
0

>  <SCORE.SYSTEM.norm>
0

>  <SCORE.heavy>
24

>  <SCORE.norm>
-0.885675

$$$$
design_2
 OpenBabel05252019093D

 26 28  0  0  0  0  0  0  0  0999 V2000
   44.7912  -44.1090   10.7645 C   0  0  0  0  0  0  0  0  0  0  0  0
   44.1285  -43.9622    9.4099 C   0  0  1  0  0  0  0  0  0  0  0  0
   44.8417  -44.6493    8.3734 N   0  0  0  0  0  0  0  0  0  0  0  0
   44.8147  -44.2310    7.0081 C   0  0  0  0  0  0  0  0  0  0  0  0
   44.1116  -43.2005    6.7638 O   0  0  0  0  0  0  0  0  0  0  0  0
   45.5158  -44.9062    5.9892 N   0  0  0  0  0  0  0  0  0  0  0  0
   45.5482  -44.5569    4.6059 C   0  0  0  0  0  0  0  0  0  0  0  0
   45.5245  -45.7701    3.7411 C   0  0  0  0  0  0  0  0  0  0  0  0
   44.3559  -45.7813    2.8172 C   0  0  0  0  0  0  0  0  0  0  0  0
   43.2152  -45.8863    3.3206 O   0  0  0  0  0  0  0  0  0  0  0  0
   44.4862  -45.6794    1.4160 N   0  0  0  0  0  0  0  0  0  0  0  0
   43.3968  -45.6840    0.4653 C   0  0  0  0  0  0  0  0  0  0  0  0
   43.9538  -46.5254   -0.6642 C   0  0  0  0  0  0  0  0  0  0  0  0
   45.4519  -46.5876   -0.4582 C   0  0  0  0  0  0  0  0  0  0  0  0
   45.6941  -45.5501    0.6145 C   0  0  0  0  0  0  0  0  0  0  0  0
   42.7771  -44.5324    9.5144 C   0  0  0  0  0  0  0  0  0  0  0  0
   41.9903  -44.2483   10.5964 C   0  0  0  0  0  0  0  0  0  0  0  0
   40.7049  -44.7674   10.7335 C   0  0  0  0  0  0  0  0  0  0  0  0
   40.2122  -45.5904    9.7508 C   0  0  0  0  0  0  0  0  0  0  0  0
   41.0124  -45.8836    8.6433 C   0  0  0  0  0  0  0  0  0  0  0  0
   40.5584  -46.7213    7.6056 N   0  0  0  0  0  0  0  0  0  0  0  0
   39.4642  -47.6475    7.6613 C   0  0  0  0  0  0  0  0  0  0  0  0
   38.9572  -47.7939    6.2388 C   0  0  0  0  0  0  0  0  0  0  0  0
   40.0209  -47.2266    5.3477 C   0  0  0  0  0  0  0  0  0  0  0  0
   41.1207  -46.7994    6.2816 C   0  0  0  0  0  0  0  0  0  0  0  0
   42.2944  -45.3502    8.5325 C   0  0  0  0  0  0  0  0  0  0  0  0
  2  1  1  1  0  0  0
  2  3  1  0  0  0  0
  2 16  1  0  0  0  0
  3  4  1  0  0  0  0
  4  5  2  0  0  0  0
  4  6  1  0  0  0  0
  6  7  1  0  0  0  0
  7  8  1  0  0  0  0
  8  9  1  0  0  0  0
  9 10  2  0  0  0  0
  9 11  1  0  0  0  0
 11 12  1  0  0  0  0
 12 13  1  0  0  0  0
 13 14  1  0  0  0  0
 14 15  1  0  0  0  0
 15 11  1  0  0  0  0
 16 17  2  0  0  0  0
 17 18  1  0  0  0  0
 18 19  2  0  0  0  0
 19 20  1  0  0  0  0
 20 21  1  0  0  0  0
 20 26  2  0  0  0  0
 21 22  1  0  0  0  0
 22 23  1  0  0  0  0
 23 24  1  0  0  0  0
 24 25  1  0  0  0  0
 25 21  1  0  0  0  0
 26 16  1  0  0  0  0
M  END
>  <CHROM.1>
-151.75071681,-141.47560169,120.99133923,-66.44809400,44.50447744,-18.09503307
43.07504688,-45.53027911,5.89885725,-1.92781608,-0.46175775,-1.82581261

>  <Name>
design_2

>  <RI>
0

>  <Rbt.Current_Directory>
/home/ziqiaoxu/icml18-jtnn/VAEdesign

>  <Rbt.Executable>
rbdock ($Id: //depot/dev/client3/rdock/2013.1/src/exe/rbdock.cxx#4 $)

>  <Rbt.Library>
libRbt.so (2013.1, Build901 2013/11/27)

>  <Rbt.Parameter_File>
/export/apps/rDock/src/rDock_2013.1_src//data/scripts/dock.prm

>  <Rbt.Receptor>
/home/ziqiaoxu/icml18-jtnn/VAEdesign/targets/RdRp-SARS-CoV-2/pocket_docking.prm

>  <SCORE>
-15.7211

>  <SCORE.INTER>
-20.4453

>  <SCORE.INTER.CONST>
1

>  <SCORE.INTER.POLAR>
-1.70375

>  <SCORE.INTER.REPUL>
0.0495581

>  <SCORE.INTER.ROT>
6

>  <SCORE.INTER.VDW>
-26.3003

>  <SCORE.INTER.norm>
-0.786356

>  <SCORE.INTRA>
4.72415

>  <SCORE.INTRA.DIHEDRAL>
8.35508

>  <SCORE.INTRA.DIHEDRAL.0>
4.21663

>  <SCORE.INTRA.POLAR>
0

>  <SCORE.INTRA.POLAR.0>
0

>  <SCORE.INTRA.REPUL>
0

>  <SCORE.INTRA.REPUL.0>
0

>  <SCORE.INTRA.VDW>
0.546615

>  <SCORE.INTRA.VDW.0>
1.62423

>  <SCORE.INTRA.norm>
0.181698

>  <SCORE.RESTR>
0

>  <SCORE.RESTR.CAVITY>
0

>  <SCORE.RESTR.norm>
0

>  <SCORE.SYSTEM>
0

>  <SCORE.SYSTEM.CONST>
0

>  <SCORE.SYSTEM.DIHEDRAL>
0

>  <SCORE.SYSTEM.norm>
0

>  <SCORE.heavy>
26

>  <SCORE.norm>
-0.604658

$$$$
design_5
 OpenBabel05252019093D

 25 27  0  0  0  0  0  0  0  0999 V2000
   39.7346  -46.6365   10.0096 N   0  0  0  0  0  0  0  0  0  0  0  0
   39.8528  -46.7497    8.6064 C   0  0  0  0  0  0  0  0  0  0  0  0
   38.8473  -47.2343    7.8002 C   0  0  0  0  0  0  0  0  0  0  0  0
   38.9845  -47.3364    6.4283 C   0  0  0  0  0  0  0  0  0  0  0  0
   40.1622  -46.9443    5.8263 C   0  0  0  0  0  0  0  0  0  0  0  0
   41.1882  -46.4537    6.6145 C   0  0  0  0  0  0  0  0  0  0  0  0
   42.4652  -46.0387    5.9740 C   0  0  0  0  0  0  0  0  0  0  0  0
   42.5227  -46.1492    4.7099 O   0  0  0  0  0  0  0  0  0  0  0  0
   43.5034  -45.5624    6.7730 N   0  0  0  0  0  0  0  0  0  0  0  0
   44.7673  -45.1486    6.2800 C   0  0  0  0  0  0  0  0  0  0  0  0
   45.5925  -44.2351    6.8809 C   0  0  0  0  0  0  0  0  0  0  0  0
   46.8310  -43.9136    6.3238 C   0  0  0  0  0  0  0  0  0  0  0  0
   47.2460  -44.5056    5.1628 C   0  0  0  0  0  0  0  0  0  0  0  0
   46.4128  -45.4312    4.5503 C   0  0  0  0  0  0  0  0  0  0  0  0
   46.9440  -46.2007    3.0474 S   0  0  0  0  0  0  0  0  0  0  0  0
   47.2704  -47.6219    3.3891 O   0  0  0  0  0  0  0  0  0  0  0  0
   48.1477  -45.4439    2.5535 O   0  0  0  0  0  0  0  0  0  0  0  0
   45.6861  -46.0664    1.8633 C   0  0  0  0  0  0  0  0  0  0  0  0
   44.4267  -45.6877    2.2056 C   0  0  0  0  0  0  0  0  0  0  0  0
   43.4273  -45.5814    1.2624 C   0  0  0  0  0  0  0  0  0  0  0  0
   43.7256  -45.8686   -0.0548 C   0  0  0  0  0  0  0  0  0  0  0  0
   45.0036  -46.2580   -0.4342 C   0  0  0  0  0  0  0  0  0  0  0  0
   45.9743  -46.3506    0.5483 C   0  0  0  0  0  0  0  0  0  0  0  0
   45.1974  -45.7608    5.0782 C   0  0  0  0  0  0  0  0  0  0  0  0
   41.0435  -46.3569    7.9673 C   0  0  0  0  0  0  0  0  0  0  0  0
  1  2  1  0  0  0  0
  2  3  2  0  0  0  0
  3  4  1  0  0  0  0
  4  5  2  0  0  0  0
  5  6  1  0  0  0  0
  6  7  1  0  0  0  0
  6 25  2  0  0  0  0
  7  8  2  0  0  0  0
  7  9  1  0  0  0  0
  9 10  1  0  0  0  0
 10 11  2  0  0  0  0
 11 12  1  0  0  0  0
 12 13  2  0  0  0  0
 13 14  1  0  0  0  0
 14 15  1  0  0  0  0
 14 24  2  0  0  0  0
 15 16  2  0  0  0  0
 15 17  2  0  0  0  0
 15 18  1  0  0  0  0
 18 19  2  0  0  0  0
 19 20  1  0  0  0  0
 20 21  2  0  0  0  0
 21 22  1  0  0  0  0
 22 23  2  0  0  0  0
 23 18  1  0  0  0  0
 24 10  1  0  0  0  0
 25  2  1  0  0  0  0
M  END
>  <CHROM.1>
0.92962527,153.28491055,108.32380253,-12.99268185,43.99346355,-46.00683275
4.69717857,-2.42943829,-0.24753797,-1.71653417

>  <Name>
design_5

>  <RI>
0

>  <Rbt.Current_Directory>
/home/ziqiaoxu/icml18-jtnn/VAEdesign

>  <Rbt.Executable>
rbdock ($Id: //depot/dev/client3/rdock/2013.1/src/exe/rbdock.cxx#4 $)

>  <Rbt.Library>
libRbt.so (2013.1, Build901 2013/11/27)

>  <Rbt.Parameter_File>
/export/apps/rDock/src/rDock_2013.1_src//data/scripts/dock.prm

>  <Rbt.Receptor>
/home/ziqiaoxu/icml18-jtnn/VAEdesign/targets/RdRp-SARS-CoV-2/pocket_docking.prm

>  <SCORE>
-23.4627

>  <SCORE.INTER>
-23.9792

>  <SCORE.INTER.CONST>
1

>  <SCORE.INTER.POLAR>
-2.08274

>  <SCORE.INTER.REPUL>
0

>  <SCORE.INTER.ROT>
4

>  <SCORE.INTER.VDW>
-26.2979

>  <SCORE.INTER.norm>
-0.95917

>  <SCORE.INTRA>
0.516529

>  <SCORE.INTRA.DIHEDRAL>
-0.561344

>  <SCORE.INTRA.DIHEDRAL.0>
5.63093

>  <SCORE.INTRA.POLAR>
0

>  <SCORE.INTRA.POLAR.0>
0

>  <SCORE.INTRA.REPUL>
0

>  <SCORE.INTRA.REPUL.0>
0

>  <SCORE.INTRA.VDW>
0.797201

>  <SCORE.INTRA.VDW.0>
-1.47461

>  <SCORE.INTRA.norm>
0.0206612

>  <SCORE.RESTR>
0

>  <SCORE.RESTR.CAVITY>
0

>  <SCORE.RESTR.norm>
0

>  <SCORE.SYSTEM>
0

>  <SCORE.SYSTEM.CONST>
0

>  <SCORE.SYSTEM.DIHEDRAL>
0

>  <SCORE.SYSTEM.norm>
0

>  <SCORE.heavy>
25

>  <SCORE.norm>
-0.938508

$$$$
design_7
 OpenBabel05252019093D

 26 27  0  0  0  0  0  0  0  0999 V2000
   39.9062  -46.1707   10.6321 N   0  0  0  0  0  0  0  0  0  0  0  0
   40.2060  -45.1838    9.6786 C   0  0  0  0  0  0  0  0  0  0  0  0
   39.3499  -44.2735    9.4332 O   0  0  0  0  0  0  0  0  0  0  0  0
   41.4589  -45.1731    8.9585 C   0  0  0  0  0  0  0  0  0  0  0  0
   41.6065  -46.0445    7.8719 C   0  0  0  0  0  0  0  0  0  0  0  0
   42.7801  -45.9969    7.1408 C   0  0  0  0  0  0  0  0  0  0  0  0
   43.8026  -45.1126    7.4594 C   0  0  0  0  0  0  0  0  0  0  0  0
   44.9477  -45.0795    6.5898 C   0  0  0  0  0  0  0  0  0  0  0  0
   45.8827  -44.9930    5.8128 C   0  0  0  0  0  0  0  0  0  0  0  0
   46.9840  -44.7978    4.8039 C   0  0  0  0  0  0  0  0  0  0  0  0
   47.2749  -45.9112    4.0822 N   0  0  0  0  0  0  0  0  0  0  0  0
   47.5702  -47.0408    3.3501 C   0  0  0  0  0  0  0  0  0  0  0  0
   48.4098  -47.9260    3.8637 O   0  0  0  0  0  0  0  0  0  0  0  0
   47.1142  -47.4548    2.0349 C   0  0  0  0  0  0  0  0  0  0  0  0
   46.1701  -46.7165    1.2322 C   0  0  0  0  0  0  0  0  0  0  0  0
   46.4418  -46.1126    0.0397 C   0  0  0  0  0  0  0  0  0  0  0  0
   45.5012  -45.3214   -0.5729 C   0  0  0  0  0  0  0  0  0  0  0  0
   44.2511  -45.1302    0.0215 C   0  0  0  0  0  0  0  0  0  0  0  0
   43.9452  -45.7273    1.2245 C   0  0  0  0  0  0  0  0  0  0  0  0
   42.7221  -45.5473    1.8416 O   0  0  0  0  0  0  0  0  0  0  0  0
   42.1527  -44.3333    2.2485 C   0  0  0  0  0  0  0  0  0  0  0  0
   40.9491  -44.6139    2.8585 F   0  0  0  0  0  0  0  0  0  0  0  0
   41.9988  -43.4534    1.1677 F   0  0  0  0  0  0  0  0  0  0  0  0
   44.9102  -46.5133    1.8119 C   0  0  0  0  0  0  0  0  0  0  0  0
   43.6066  -44.2920    8.5237 C   0  0  0  0  0  0  0  0  0  0  0  0
   42.4507  -44.2904    9.2998 C   0  0  0  0  0  0  0  0  0  0  0  0
  1  2  1  0  0  0  0
  2  3  2  0  0  0  0
  2  4  1  0  0  0  0
  4  5  2  0  0  0  0
  5  6  1  0  0  0  0
  6  7  2  0  0  0  0
  7  8  1  0  0  0  0
  7 25  1  0  0  0  0
  8  9  3  0  0  0  0
  9 10  1  0  0  0  0
 10 11  1  0  0  0  0
 11 12  1  0  0  0  0
 12 13  2  0  0  0  0
 12 14  1  0  0  0  0
 14 15  1  0  0  0  0
 15 16  2  0  0  0  0
 16 17  1  0  0  0  0
 17 18  2  0  0  0  0
 18 19  1  0  0  0  0
 19 20  1  0  0  0  0
 19 24  2  0  0  0  0
 20 21  1  0  0  0  0
 21 22  1  0  0  0  0
 21 23  1  0  0  0  0
 24 15  1  0  0  0  0
 25 26  2  0  0  0  0
 26  4  1  0  0  0  0
M  END
>  <CHROM.1>
79.35300746,92.59322395,-124.99076253,-127.22224455,-2.25376371,114.13875945
-58.75915881,-178.00212686,43.84226727,-45.48049161,4.61503450,-2.13781737
0.31403639,-1.49417167

>  <Name>
design_7

>  <RI>
0

>  <Rbt.Current_Directory>
/home/ziqiaoxu/icml18-jtnn/VAEdesign

>  <Rbt.Executable>
rbdock ($Id: //depot/dev/client3/rdock/2013.1/src/exe/rbdock.cxx#4 $)

>  <Rbt.Library>
libRbt.so (2013.1, Build901 2013/11/27)

>  <Rbt.Parameter_File>
/export/apps/rDock/src/rDock_2013.1_src//data/scripts/dock.prm

>  <Rbt.Receptor>
/home/ziqiaoxu/icml18-jtnn/VAEdesign/targets/RdRp-SARS-CoV-2/pocket_docking.prm

>  <SCORE>
-22.3683

>  <SCORE.INTER>
-23.6339

>  <SCORE.INTER.CONST>
1

>  <SCORE.INTER.POLAR>
-3.15802

>  <SCORE.INTER.REPUL>
0

>  <SCORE.INTER.ROT>
8

>  <SCORE.INTER.VDW>
-26.2966

>  <SCORE.INTER.norm>
-0.908994

>  <SCORE.INTRA>
1.26554

>  <SCORE.INTRA.DIHEDRAL>
4.94184

>  <SCORE.INTRA.DIHEDRAL.0>
14.9411

>  <SCORE.INTRA.POLAR>
0

>  <SCORE.INTRA.POLAR.0>
0

>  <SCORE.INTRA.REPUL>
0

>  <SCORE.INTRA.REPUL.0>
0

>  <SCORE.INTRA.VDW>
-1.20538

>  <SCORE.INTRA.VDW.0>
-1.80781

>  <SCORE.INTRA.norm>
0.0486744

>  <SCORE.RESTR>
0

>  <SCORE.RESTR.CAVITY>
0

>  <SCORE.RESTR.norm>
0

>  <SCORE.SYSTEM>
0

>  <SCORE.SYSTEM.CONST>
0

>  <SCORE.SYSTEM.DIHEDRAL>
0

>  <SCORE.SYSTEM.norm>
0

>  <SCORE.heavy>
26

>  <SCORE.norm>
-0.86032

$$$$
design_13
 OpenBabel05252019093D

 22 24  0  0  0  0  0  0  0  0999 V2000
   46.6996  -46.0430    3.5490 C   0  0  0  0  0  0  0  0  0  0  0  0
   46.3315  -45.4685    4.8532 C   0  0  0  0  0  0  0  0  0  0  0  0
   47.0855  -44.6278    5.5962 N   0  0  0  0  0  0  0  0  0  0  0  0
   46.3858  -44.3678    6.6696 N   0  0  0  0  0  0  0  0  0  0  0  0
   45.2054  -45.0128    6.6446 C   0  0  0  0  0  0  0  0  0  0  0  0
   44.1680  -44.9709    7.6635 C   0  0  0  0  0  0  0  0  0  0  0  0
   42.9854  -45.6533    7.4647 C   0  0  0  0  0  0  0  0  0  0  0  0
   41.9710  -45.6521    8.3916 C   0  0  0  0  0  0  0  0  0  0  0  0
   42.1124  -44.9536    9.5696 C   0  0  0  0  0  0  0  0  0  0  0  0
   40.9957  -44.9750   10.5323 C   0  0  0  0  0  0  0  0  0  0  0  0
   40.0252  -45.9867   10.2512 N   0  0  0  0  0  0  0  0  0  0  0  0
   38.9573  -45.7443    9.3545 C   0  0  0  0  0  0  0  0  0  0  0  0
   38.8773  -44.6153    8.8093 O   0  0  0  0  0  0  0  0  0  0  0  0
   37.9652  -46.8099    9.0771 C   0  0  0  0  0  0  0  0  0  0  0  0
   38.4915  -47.7135    7.9882 C   0  0  0  0  0  0  0  0  0  0  0  0
   39.0523  -47.3060    6.8089 C   0  0  0  0  0  0  0  0  0  0  0  0
   39.4654  -48.2634    5.9585 C   0  0  0  0  0  0  0  0  0  0  0  0
   39.2873  -49.5642    6.3504 C   0  0  0  0  0  0  0  0  0  0  0  0
   38.5551  -49.4109    7.8800 S   0  0  0  0  0  0  0  0  0  0  0  0
   43.2859  -44.2676    9.7844 C   0  0  0  0  0  0  0  0  0  0  0  0
   44.3025  -44.2793    8.8356 C   0  0  0  0  0  0  0  0  0  0  0  0
   45.1666  -45.7100    5.4977 N   0  0  0  0  0  0  0  0  0  0  0  0
  1  2  1  0  0  0  0
  2  3  2  0  0  0  0
  3  4  1  0  0  0  0
  4  5  1  0  0  0  0
  5  6  1  0  0  0  0
  5 22  2  0  0  0  0
  6  7  2  0  0  0  0
  7  8  1  0  0  0  0
  8  9  2  0  0  0  0
  9 10  1  0  0  0  0
  9 20  1  0  0  0  0
 10 11  1  0  0  0  0
 11 12  1  0  0  0  0
 12 13  2  0  0  0  0
 12 14  1  0  0  0  0
 14 15  1  0  0  0  0
 15 16  2  0  0  0  0
 16 17  1  0  0  0  0
 17 18  2  0  0  0  0
 18 19  1  0  0  0  0
 19 15  1  0  0  0  0
 20 21  2  0  0  0  0
 21  6  1  0  0  0  0
 22  2  1  0  0  0  0
M  END
>  <CHROM.1>
177.54972744,14.12712461,-86.44390021,-84.74327803,-46.92757954,41.94718109
-46.16119296,7.63102509,0.01975684,-0.44984932,-2.26383853

>  <Name>
design_13

>  <RI>
0

>  <Rbt.Current_Directory>
/home/ziqiaoxu/icml18-jtnn/VAEdesign

>  <Rbt.Executable>
rbdock ($Id: //depot/dev/client3/rdock/2013.1/src/exe/rbdock.cxx#4 $)

>  <Rbt.Library>
libRbt.so (2013.1, Build901 2013/11/27)

>  <Rbt.Parameter_File>
/export/apps/rDock/src/rDock_2013.1_src//data/scripts/dock.prm

>  <Rbt.Receptor>
/home/ziqiaoxu/icml18-jtnn/VAEdesign/targets/RdRp-SARS-CoV-2/pocket_docking.prm

>  <SCORE>
-19.6675

>  <SCORE.INTER>
-19.8171

>  <SCORE.INTER.CONST>
1

>  <SCORE.INTER.POLAR>
-1.15472

>  <SCORE.INTER.REPUL>
0

>  <SCORE.INTER.ROT>
5

>  <SCORE.INTER.VDW>
-26.291

>  <SCORE.INTER.norm>
-0.900777

>  <SCORE.INTRA>
0.149619

>  <SCORE.INTRA.DIHEDRAL>
1.16657

>  <SCORE.INTRA.DIHEDRAL.0>
4.52212

>  <SCORE.INTRA.POLAR>
0

>  <SCORE.INTRA.POLAR.0>
0

>  <SCORE.INTRA.REPUL>
0

>  <SCORE.INTRA.REPUL.0>
0

>  <SCORE.INTRA.VDW>
-0.433665

>  <SCORE.INTRA.VDW.0>
-1.71417

>  <SCORE.INTRA.norm>
0.00680088

>  <SCORE.RESTR>
0

>  <SCORE.RESTR.CAVITY>
0

>  <SCORE.RESTR.norm>
0

>  <SCORE.SYSTEM>
0

>  <SCORE.SYSTEM.CONST>
0

>  <SCORE.SYSTEM.DIHEDRAL>
0

>  <SCORE.SYSTEM.norm>
0

>  <SCORE.heavy>
22

>  <SCORE.norm>
-0.893976

$$$$
design_17
 OpenBabel05252019093D

 26 28  0  0  0  0  0  0  0  0999 V2000
   39.1499  -49.1269    6.5435 C   0  0  0  0  0  0  0  0  0  0  0  0
   39.5538  -47.9781    7.4061 C   0  0  0  0  0  0  0  0  0  0  0  0
   38.7677  -47.5033    8.4373 C   0  0  0  0  0  0  0  0  0  0  0  0
   39.1768  -46.4401    9.2091 C   0  0  0  0  0  0  0  0  0  0  0  0
   40.4005  -45.7870    8.9949 C   0  0  0  0  0  0  0  0  0  0  0  0
   40.7354  -44.6843    9.9388 C   0  0  0  0  0  0  0  0  0  0  0  0
   41.1801  -46.2460    7.9834 C   0  0  0  0  0  0  0  0  0  0  0  0
   42.4490  -45.5999    7.6573 C   0  0  0  0  0  0  0  0  0  0  0  0
   42.6904  -45.5564    6.4258 O   0  0  0  0  0  0  0  0  0  0  0  0
   43.3618  -45.0543    8.5632 N   0  0  0  0  0  0  0  0  0  0  0  0
   44.5940  -44.4560    8.2300 C   0  0  0  0  0  0  0  0  0  0  0  0
   45.3608  -43.6411    9.0087 C   0  0  0  0  0  0  0  0  0  0  0  0
   46.5641  -43.0605    8.5873 C   0  0  0  0  0  0  0  0  0  0  0  0
   46.9859  -43.3339    7.3170 C   0  0  0  0  0  0  0  0  0  0  0  0
   46.2658  -44.1512    6.4680 C   0  0  0  0  0  0  0  0  0  0  0  0
   46.7242  -44.4313    5.0872 C   0  0  0  0  0  0  0  0  0  0  0  0
   47.1098  -43.4829    4.4275 O   0  0  0  0  0  0  0  0  0  0  0  0
   46.6654  -45.7673    4.6787 N   0  0  0  0  0  0  0  0  0  0  0  0
   47.0162  -46.3054    3.4035 C   0  0  0  0  0  0  0  0  0  0  0  0
   47.0656  -47.6129    3.0805 C   0  0  0  0  0  0  0  0  0  0  0  0
   47.4131  -48.0690    1.8070 C   0  0  0  0  0  0  0  0  0  0  0  0
   47.7206  -47.1216    0.8364 C   0  0  0  0  0  0  0  0  0  0  0  0
   47.6654  -45.8130    1.1797 C   0  0  0  0  0  0  0  0  0  0  0  0
   47.3317  -45.3794    2.4032 N   0  0  0  0  0  0  0  0  0  0  0  0
   45.0991  -44.6885    6.9368 C   0  0  0  0  0  0  0  0  0  0  0  0
   40.7455  -47.3361    7.2035 C   0  0  0  0  0  0  0  0  0  0  0  0
  1  2  1  0  0  0  0
  2  3  2  0  0  0  0
  3  4  1  0  0  0  0
  4  5  2  0  0  0  0
  5  6  1  0  0  0  0
  5  7  1  0  0  0  0
  7  8  1  0  0  0  0
  7 26  2  0  0  0  0
  8  9  2  0  0  0  0
  8 10  1  0  0  0  0
 10 11  1  0  0  0  0
 11 12  2  0  0  0  0
 12 13  1  0  0  0  0
 13 14  2  0  0  0  0
 14 15  1  0  0  0  0
 15 16  1  0  0  0  0
 15 25  2  0  0  0  0
 16 17  2  0  0  0  0
 16 18  1  0  0  0  0
 18 19  1  0  0  0  0
 19 20  2  0  0  0  0
 20 21  1  0  0  0  0
 21 22  2  0  0  0  0
 22 23  1  0  0  0  0
 23 24  2  0  0  0  0
 24 19  1  0  0  0  0
 25 11  1  0  0  0  0
 26  2  1  0  0  0  0
M  END
>  <CHROM.1>
-142.52551962,163.02088506,-45.52066201,173.43451038,44.14175651,-45.70949119
6.21630615,2.69734232,0.49021602,0.93336301

>  <Name>
design_17

>  <RI>
0

>  <Rbt.Current_Directory>
/home/ziqiaoxu/icml18-jtnn/VAEdesign

>  <Rbt.Executable>
rbdock ($Id: //depot/dev/client3/rdock/2013.1/src/exe/rbdock.cxx#4 $)

>  <Rbt.Library>
libRbt.so (2013.1, Build901 2013/11/27)

>  <Rbt.Parameter_File>
/export/apps/rDock/src/rDock_2013.1_src//data/scripts/dock.prm

>  <Rbt.Receptor>
/home/ziqiaoxu/icml18-jtnn/VAEdesign/targets/RdRp-SARS-CoV-2/pocket_docking.prm

>  <SCORE>
-17.9361

>  <SCORE.INTER>
-19.8967

>  <SCORE.INTER.CONST>
1

>  <SCORE.INTER.POLAR>
-0.884815

>  <SCORE.INTER.REPUL>
0

>  <SCORE.INTER.ROT>
4

>  <SCORE.INTER.VDW>
-26.2884

>  <SCORE.INTER.norm>
-0.765259

>  <SCORE.INTRA>
1.96059

>  <SCORE.INTRA.DIHEDRAL>
1.51933

>  <SCORE.INTRA.DIHEDRAL.0>
10.648

>  <SCORE.INTRA.POLAR>
0

>  <SCORE.INTRA.POLAR.0>
0

>  <SCORE.INTRA.REPUL>
0

>  <SCORE.INTRA.REPUL.0>
0

>  <SCORE.INTRA.VDW>
1.20092

>  <SCORE.INTRA.VDW.0>
-0.323818

>  <SCORE.INTRA.norm>
0.0754071

>  <SCORE.RESTR>
0

>  <SCORE.RESTR.CAVITY>
0

>  <SCORE.RESTR.norm>
0

>  <SCORE.SYSTEM>
0

>  <SCORE.SYSTEM.CONST>
0

>  <SCORE.SYSTEM.DIHEDRAL>
0

>  <SCORE.SYSTEM.norm>
0

>  <SCORE.heavy>
26

>  <SCORE.norm>
-0.689852

$$$$
design_4
 OpenBabel05252019093D

 22 24  0  0  0  0  0  0  0  0999 V2000
   39.5696  -48.2707    6.1530 C   0  0  0  0  0  0  0  0  0  0  0  0
   40.2120  -47.4014    7.1450 C   0  0  0  0  0  0  0  0  0  0  0  0
   39.7065  -47.0662    8.3803 C   0  0  0  0  0  0  0  0  0  0  0  0
   40.6372  -46.2376    8.9641 C   0  0  0  0  0  0  0  0  0  0  0  0
   40.5128  -45.6232   10.3152 C   0  0  0  0  0  0  0  0  0  0  0  0
   40.5771  -44.1379   10.2000 C   0  0  0  0  0  0  0  0  0  0  0  0
   41.6593  -43.6530    9.8013 O   0  0  0  0  0  0  0  0  0  0  0  0
   39.5080  -43.2822   10.5089 N   0  0  0  0  0  0  0  0  0  0  0  0
   39.5339  -41.8598   10.4130 C   0  0  0  0  0  0  0  0  0  0  0  0
   39.1087  -41.3291    9.0420 C   0  0  0  0  0  0  0  0  0  0  0  0
   40.3593  -41.0791    8.2802 C   0  0  0  0  0  0  0  0  0  0  0  0
   40.2445  -39.9670    7.2989 C   0  0  0  0  0  0  0  0  0  0  0  0
   40.0190  -39.9621    6.0128 N   0  0  0  0  0  0  0  0  0  0  0  0
   39.9506  -38.8371    5.3479 C   0  0  0  0  0  0  0  0  0  0  0  0
   39.7112  -38.7083    3.9700 C   0  0  0  0  0  0  0  0  0  0  0  0
   39.6610  -37.4793    3.3994 C   0  0  0  0  0  0  0  0  0  0  0  0
   39.8328  -36.2947    4.0869 C   0  0  0  0  0  0  0  0  0  0  0  0
   40.0683  -36.4168    5.4422 C   0  0  0  0  0  0  0  0  0  0  0  0
   40.1247  -37.6789    6.0555 C   0  0  0  0  0  0  0  0  0  0  0  0
   40.3759  -38.2928    7.6375 S   0  0  0  0  0  0  0  0  0  0  0  0
   41.6162  -46.1187    8.0898 O   0  0  0  0  0  0  0  0  0  0  0  0
   41.3851  -46.7896    7.0257 N   0  0  0  0  0  0  0  0  0  0  0  0
  1  2  1  0  0  0  0
  2  3  1  0  0  0  0
  3  4  2  0  0  0  0
  4  5  1  0  0  0  0
  4 21  1  0  0  0  0
  5  6  1  0  0  0  0
  6  7  2  0  0  0  0
  6  8  1  0  0  0  0
  8  9  1  0  0  0  0
  9 10  1  0  0  0  0
 10 11  1  0  0  0  0
 11 12  1  0  0  0  0
 12 13  2  0  0  0  0
 13 14  1  0  0  0  0
 14 15  2  0  0  0  0
 15 16  1  0  0  0  0
 16 17  2  0  0  0  0
 17 18  1  0  0  0  0
 18 19  2  0  0  0  0
 19 20  1  0  0  0  0
 19 14  1  0  0  0  0
 20 12  1  0  0  0  0
 21 22  1  0  0  0  0
 22  2  2  0  0  0  0
M  END
>  <CHROM.1>
-121.49199524,-65.23979974,89.49299452,-96.78464218,-149.60790187,-97.95372246
40.22275069,-41.99055777,7.50763297,0.23592923,1.51435780,-2.14500515

>  <Name>
design_4

>  <RI>
0

>  <Rbt.Current_Directory>
/home/ziqiaoxu/icml18-jtnn/VAEdesign

>  <Rbt.Executable>
rbdock ($Id: //depot/dev/client3/rdock/2013.1/src/exe/rbdock.cxx#4 $)

>  <Rbt.Library>
libRbt.so (2013.1, Build901 2013/11/27)

>  <Rbt.Parameter_File>
/export/apps/rDock/src/rDock_2013.1_src//data/scripts/dock.prm

>  <Rbt.Receptor>
/home/ziqiaoxu/icml18-jtnn/VAEdesign/targets/RdRp-SARS-CoV-2/pocket_docking.prm

>  <SCORE>
-16.2554

>  <SCORE.INTER>
-18.2659

>  <SCORE.INTER.CONST>
1

>  <SCORE.INTER.POLAR>
-0.993931

>  <SCORE.INTER.REPUL>
0

>  <SCORE.INTER.ROT>
6

>  <SCORE.INTER.VDW>
-26.2866

>  <SCORE.INTER.norm>
-0.83027

>  <SCORE.INTRA>
2.01058

>  <SCORE.INTRA.DIHEDRAL>
5.14762

>  <SCORE.INTRA.DIHEDRAL.0>
5.19778

>  <SCORE.INTRA.POLAR>
0

>  <SCORE.INTRA.POLAR.0>
0

>  <SCORE.INTRA.REPUL>
0

>  <SCORE.INTRA.REPUL.0>
0

>  <SCORE.INTRA.VDW>
-0.563232

>  <SCORE.INTRA.VDW.0>
-1.52591

>  <SCORE.INTRA.norm>
0.09139

>  <SCORE.RESTR>
0

>  <SCORE.RESTR.CAVITY>
0

>  <SCORE.RESTR.norm>
0

>  <SCORE.SYSTEM>
0

>  <SCORE.SYSTEM.CONST>
0

>  <SCORE.SYSTEM.DIHEDRAL>
0

>  <SCORE.SYSTEM.norm>
0

>  <SCORE.heavy>
22

>  <SCORE.norm>
-0.73888

$$$$
design_11
 OpenBabel05252019093D

 25 27  0  0  0  0  0  0  0  0999 V2000
   41.8264  -45.6215   15.1884 C   0  0  0  0  0  0  0  0  0  0  0  0
   43.3091  -45.4037   15.0988 C   0  0  0  0  0  0  0  0  0  0  0  0
   43.7147  -45.1978   13.7391 N   0  0  0  0  0  0  0  0  0  0  0  0
   44.4526  -44.0331   13.3899 C   0  0  0  0  0  0  0  0  0  0  0  0
   44.7490  -43.2027   14.3204 O   0  0  0  0  0  0  0  0  0  0  0  0
   44.8817  -43.7207   12.0567 C   0  0  0  0  0  0  0  0  0  0  0  0
   45.7444  -42.6346   11.8922 C   0  0  0  0  0  0  0  0  0  0  0  0
   46.1399  -42.2608   10.6333 C   0  0  0  0  0  0  0  0  0  0  0  0
   45.7077  -42.9248    9.5436 C   0  0  0  0  0  0  0  0  0  0  0  0
   44.8160  -44.0623    9.6534 C   0  0  0  0  0  0  0  0  0  0  0  0
   44.4588  -44.5816    8.4235 N   0  0  0  0  0  0  0  0  0  0  0  0
   44.1266  -45.0815    7.2422 C   0  0  0  0  0  0  0  0  0  0  0  0
   44.8674  -45.5532    6.3208 O   0  0  0  0  0  0  0  0  0  0  0  0
   42.6441  -45.1402    6.8484 C   0  0  0  0  0  0  0  0  0  0  0  0
   41.7646  -45.4993    7.9385 C   0  0  0  0  0  0  0  0  0  0  0  0
   41.7077  -44.9095    9.1933 C   0  0  0  0  0  0  0  0  0  0  0  0
   40.7761  -45.3046   10.1649 C   0  0  0  0  0  0  0  0  0  0  0  0
   39.8816  -46.2816    9.9289 C   0  0  0  0  0  0  0  0  0  0  0  0
   39.8997  -46.9032    8.6746 C   0  0  0  0  0  0  0  0  0  0  0  0
   38.9437  -47.8899    8.4222 C   0  0  0  0  0  0  0  0  0  0  0  0
   38.9472  -48.4781    7.1638 C   0  0  0  0  0  0  0  0  0  0  0  0
   39.8613  -48.0948    6.2118 C   0  0  0  0  0  0  0  0  0  0  0  0
   40.7716  -47.1220    6.5154 C   0  0  0  0  0  0  0  0  0  0  0  0
   40.7966  -46.5144    7.7620 C   0  0  0  0  0  0  0  0  0  0  0  0
   44.4690  -44.3792   10.8996 C   0  0  0  0  0  0  0  0  0  0  0  0
  1  2  1  0  0  0  0
  2  3  1  0  0  0  0
  3  4  1  0  0  0  0
  4  5  2  0  0  0  0
  4  6  1  0  0  0  0
  6  7  2  0  0  0  0
  7  8  1  0  0  0  0
  8  9  2  0  0  0  0
  9 10  1  0  0  0  0
 10 11  1  0  0  0  0
 10 25  2  0  0  0  0
 11 12  1  0  0  0  0
 12 13  2  0  0  0  0
 12 14  1  0  0  0  0
 14 15  1  0  0  0  0
 15 16  2  0  0  0  0
 16 17  1  0  0  0  0
 17 18  2  0  0  0  0
 18 19  1  0  0  0  0
 19 20  2  0  0  0  0
 20 21  1  0  0  0  0
 21 22  2  0  0  0  0
 22 23  1  0  0  0  0
 23 24  2  0  0  0  0
 24 15  1  0  0  0  0
 24 19  1  0  0  0  0
 25  6  1  0  0  0  0
M  END
>  <CHROM.1>
125.30464902,-171.87237559,60.25178006,-38.99625042,51.89897183,42.81737755
-45.22049679,9.95444407,0.89265550,0.57433832,1.47771343

>  <Name>
design_11

>  <RI>
0

>  <Rbt.Current_Directory>
/home/ziqiaoxu/icml18-jtnn/VAEdesign

>  <Rbt.Executable>
rbdock ($Id: //depot/dev/client3/rdock/2013.1/src/exe/rbdock.cxx#4 $)

>  <Rbt.Library>
libRbt.so (2013.1, Build901 2013/11/27)

>  <Rbt.Parameter_File>
/export/apps/rDock/src/rDock_2013.1_src//data/scripts/dock.prm

>  <Rbt.Receptor>
/home/ziqiaoxu/icml18-jtnn/VAEdesign/targets/RdRp-SARS-CoV-2/pocket_docking.prm

>  <SCORE>
-21.6437

>  <SCORE.INTER>
-21.3956

>  <SCORE.INTER.CONST>
1

>  <SCORE.INTER.POLAR>
-1.70433

>  <SCORE.INTER.REPUL>
0.0562906

>  <SCORE.INTER.ROT>
5

>  <SCORE.INTER.VDW>
-26.2823

>  <SCORE.INTER.norm>
-0.855823

>  <SCORE.INTRA>
-0.248077

>  <SCORE.INTRA.DIHEDRAL>
8.51921

>  <SCORE.INTRA.DIHEDRAL.0>
4.79482

>  <SCORE.INTRA.POLAR>
0

>  <SCORE.INTRA.POLAR.0>
0

>  <SCORE.INTRA.REPUL>
0

>  <SCORE.INTRA.REPUL.0>
0

>  <SCORE.INTRA.VDW>
-4.50768

>  <SCORE.INTRA.VDW.0>
2.98763

>  <SCORE.INTRA.norm>
-0.00992308

>  <SCORE.RESTR>
0

>  <SCORE.RESTR.CAVITY>
0

>  <SCORE.RESTR.norm>
0

>  <SCORE.SYSTEM>
0

>  <SCORE.SYSTEM.CONST>
0

>  <SCORE.SYSTEM.DIHEDRAL>
0

>  <SCORE.SYSTEM.norm>
0

>  <SCORE.heavy>
25

>  <SCORE.norm>
-0.865746

$$$$
design_6
 OpenBabel05252019093D

 23 25  0  0  0  0  0  0  0  0999 V2000
   39.4780  -48.6758    6.7753 C   0  0  0  0  0  0  0  0  0  0  0  0
   39.8439  -47.5517    7.6759 C   0  0  0  0  0  0  0  0  0  0  0  0
   40.9885  -46.8140    7.4675 C   0  0  0  0  0  0  0  0  0  0  0  0
   41.2987  -45.7598    8.3411 C   0  0  0  0  0  0  0  0  0  0  0  0
   40.4789  -45.4567    9.3957 C   0  0  0  0  0  0  0  0  0  0  0  0
   40.8746  -44.1282   10.4923 S   0  0  0  0  0  0  0  0  0  0  0  0
   39.7238  -42.7669   10.4026 C   0  0  0  0  0  0  0  0  0  0  0  0
   39.8374  -42.1245    9.0470 C   0  0  0  0  0  0  0  0  0  0  0  0
   40.0022  -42.8667    8.0593 O   0  0  0  0  0  0  0  0  0  0  0  0
   39.7568  -40.7400    8.9343 N   0  0  0  0  0  0  0  0  0  0  0  0
   39.8327  -39.9701    7.7622 C   0  0  0  0  0  0  0  0  0  0  0  0
   39.9397  -38.6118    7.8001 C   0  0  0  0  0  0  0  0  0  0  0  0
   39.9839  -37.9253    6.5847 C   0  0  0  0  0  0  0  0  0  0  0  0
   39.9218  -38.5986    5.3875 C   0  0  0  0  0  0  0  0  0  0  0  0
   39.9724  -37.8301    4.1742 N   0  0  0  0  0  0  0  0  0  0  0  0
   40.0139  -36.4978    4.1258 C   0  0  0  0  0  0  0  0  0  0  0  0
   40.0533  -36.1562    2.8331 N   0  0  0  0  0  0  0  0  0  0  0  0
   40.0358  -37.2655    2.1185 N   0  0  0  0  0  0  0  0  0  0  0  0
   39.9862  -38.2865    2.9456 N   0  0  0  0  0  0  0  0  0  0  0  0
   39.8152  -39.9628    5.3693 C   0  0  0  0  0  0  0  0  0  0  0  0
   39.7691  -40.6651    6.5446 C   0  0  0  0  0  0  0  0  0  0  0  0
   39.3441  -46.2047    9.5843 C   0  0  0  0  0  0  0  0  0  0  0  0
   39.0162  -47.2567    8.7286 C   0  0  0  0  0  0  0  0  0  0  0  0
  1  2  1  0  0  0  0
  2  3  2  0  0  0  0
  3  4  1  0  0  0  0
  4  5  2  0  0  0  0
  5  6  1  0  0  0  0
  5 22  1  0  0  0  0
  6  7  1  0  0  0  0
  7  8  1  0  0  0  0
  8  9  2  0  0  0  0
  8 10  1  0  0  0  0
 10 11  1  0  0  0  0
 11 12  2  0  0  0  0
 12 13  1  0  0  0  0
 13 14  2  0  0  0  0
 14 15  1  0  0  0  0
 14 20  1  0  0  0  0
 15 16  1  0  0  0  0
 16 17  2  0  0  0  0
 17 18  1  0  0  0  0
 18 19  2  0  0  0  0
 19 15  1  0  0  0  0
 20 21  2  0  0  0  0
 21 11  1  0  0  0  0
 22 23  2  0  0  0  0
 23  2  1  0  0  0  0
M  END
>  <CHROM.1>
113.38016732,-66.28407425,38.83449149,-170.02353601,-3.23368818,40.04428023
-41.94384332,7.15828411,1.24860383,1.52531614,2.96665428

>  <Name>
design_6

>  <RI>
0

>  <Rbt.Current_Directory>
/home/ziqiaoxu/icml18-jtnn/VAEdesign

>  <Rbt.Executable>
rbdock ($Id: //depot/dev/client3/rdock/2013.1/src/exe/rbdock.cxx#4 $)

>  <Rbt.Library>
libRbt.so (2013.1, Build901 2013/11/27)

>  <Rbt.Parameter_File>
/export/apps/rDock/src/rDock_2013.1_src//data/scripts/dock.prm

>  <Rbt.Receptor>
/home/ziqiaoxu/icml18-jtnn/VAEdesign/targets/RdRp-SARS-CoV-2/pocket_docking.prm

>  <SCORE>
-22.8329

>  <SCORE.INTER>
-19.1087

>  <SCORE.INTER.CONST>
1

>  <SCORE.INTER.POLAR>
-0.94966

>  <SCORE.INTER.REPUL>
0

>  <SCORE.INTER.ROT>
5

>  <SCORE.INTER.VDW>
-26.2798

>  <SCORE.INTER.norm>
-0.830812

>  <SCORE.INTRA>
-3.72424

>  <SCORE.INTRA.DIHEDRAL>
-1.7777

>  <SCORE.INTRA.DIHEDRAL.0>
5.65935

>  <SCORE.INTRA.POLAR>
0

>  <SCORE.INTRA.POLAR.0>
0

>  <SCORE.INTRA.REPUL>
0

>  <SCORE.INTRA.REPUL.0>
0

>  <SCORE.INTRA.VDW>
-2.83539

>  <SCORE.INTRA.VDW.0>
2.88586

>  <SCORE.INTRA.norm>
-0.161924

>  <SCORE.RESTR>
0

>  <SCORE.RESTR.CAVITY>
0

>  <SCORE.RESTR.norm>
0

>  <SCORE.SYSTEM>
0

>  <SCORE.SYSTEM.CONST>
0

>  <SCORE.SYSTEM.DIHEDRAL>
0

>  <SCORE.SYSTEM.norm>
0

>  <SCORE.heavy>
23

>  <SCORE.norm>
-0.992735

$$$$
design_15
 OpenBabel05252019093D

 23 25  0  0  0  0  0  0  0  0999 V2000
   37.1020  -46.2782    7.7937 O   0  0  0  0  0  0  0  0  0  0  0  0
   37.8261  -47.0659    7.1262 C   0  0  0  0  0  0  0  0  0  0  0  0
   38.8896  -47.8212    7.8374 C   0  0  0  0  0  0  0  0  0  0  0  0
   39.5963  -46.8073    9.1873 S   0  0  0  0  0  0  0  0  0  0  0  0
   41.1093  -46.0345    8.6366 C   0  0  0  0  0  0  0  0  0  0  0  0
   41.7222  -46.4426    7.4452 C   0  0  0  0  0  0  0  0  0  0  0  0
   42.8904  -45.8176    7.0570 C   0  0  0  0  0  0  0  0  0  0  0  0
   43.4667  -44.8063    7.8089 C   0  0  0  0  0  0  0  0  0  0  0  0
   44.6139  -44.2360    7.3690 F   0  0  0  0  0  0  0  0  0  0  0  0
   42.8611  -44.4068    8.9811 C   0  0  0  0  0  0  0  0  0  0  0  0
   41.6806  -45.0334    9.3802 C   0  0  0  0  0  0  0  0  0  0  0  0
   37.6353  -47.2322    5.7272 N   0  0  0  0  0  0  0  0  0  0  0  0
   36.5999  -46.4968    5.0334 C   0  0  0  0  0  0  0  0  0  0  0  0
   36.7495  -45.0328    5.3057 C   0  0  0  0  0  0  0  0  0  0  0  0
   37.8889  -44.3084    5.3298 N   0  0  0  0  0  0  0  0  0  0  0  0
   37.5917  -43.0750    5.6040 O   0  0  0  0  0  0  0  0  0  0  0  0
   36.3006  -42.9249    5.7683 C   0  0  0  0  0  0  0  0  0  0  0  0
   35.5683  -41.6633    6.0934 C   0  0  0  0  0  0  0  0  0  0  0  0
   36.1302  -40.4507    6.0350 C   0  0  0  0  0  0  0  0  0  0  0  0
   35.3498  -39.3728    6.3597 C   0  0  0  0  0  0  0  0  0  0  0  0
   33.8516  -40.0857    6.7378 S   0  0  0  0  0  0  0  0  0  0  0  0
   34.2475  -41.7194    6.4772 C   0  0  0  0  0  0  0  0  0  0  0  0
   35.7786  -44.1448    5.5822 N   0  0  0  0  0  0  0  0  0  0  0  0
  1  2  2  0  0  0  0
  2  3  1  0  0  0  0
  2 12  1  0  0  0  0
  3  4  1  0  0  0  0
  4  5  1  0  0  0  0
  5  6  2  0  0  0  0
  6  7  1  0  0  0  0
  7  8  2  0  0  0  0
  8  9  1  0  0  0  0
  8 10  1  0  0  0  0
 10 11  2  0  0  0  0
 11  5  1  0  0  0  0
 12 13  1  0  0  0  0
 13 14  1  0  0  0  0
 14 15  2  0  0  0  0
 15 16  1  0  0  0  0
 16 17  1  0  0  0  0
 17 18  1  0  0  0  0
 17 23  2  0  0  0  0
 18 19  1  0  0  0  0
 19 20  2  0  0  0  0
 20 21  1  0  0  0  0
 21 22  1  0  0  0  0
 22 18  2  0  0  0  0
 23 14  1  0  0  0  0
M  END
>  <CHROM.1>
-34.48160758,-97.87091190,-12.39738294,53.76621453,42.70322525,12.04262644
38.37253319,-44.32989367,7.00237979,0.56236159,0.25504847,3.12525226

>  <Name>
design_15

>  <RI>
0

>  <Rbt.Current_Directory>
/home/ziqiaoxu/icml18-jtnn/VAEdesign

>  <Rbt.Executable>
rbdock ($Id: //depot/dev/client3/rdock/2013.1/src/exe/rbdock.cxx#4 $)

>  <Rbt.Library>
libRbt.so (2013.1, Build901 2013/11/27)

>  <Rbt.Parameter_File>
/export/apps/rDock/src/rDock_2013.1_src//data/scripts/dock.prm

>  <Rbt.Receptor>
/home/ziqiaoxu/icml18-jtnn/VAEdesign/targets/RdRp-SARS-CoV-2/pocket_docking.prm

>  <SCORE>
-16.7441

>  <SCORE.INTER>
-17.2709

>  <SCORE.INTER.CONST>
1

>  <SCORE.INTER.POLAR>
-0.729774

>  <SCORE.INTER.REPUL>
0.0167694

>  <SCORE.INTER.ROT>
6

>  <SCORE.INTER.VDW>
-26.2735

>  <SCORE.INTER.norm>
-0.75091

>  <SCORE.INTRA>
0.524638

>  <SCORE.INTRA.DIHEDRAL>
2.18005

>  <SCORE.INTRA.DIHEDRAL.0>
5.87316

>  <SCORE.INTRA.POLAR>
0

>  <SCORE.INTRA.POLAR.0>
0

>  <SCORE.INTRA.REPUL>
0

>  <SCORE.INTRA.REPUL.0>
0

>  <SCORE.INTRA.VDW>
-0.565387

>  <SCORE.INTRA.VDW.0>
-1.18006

>  <SCORE.INTRA.norm>
0.0228104

>  <SCORE.RESTR>
0.00221784

>  <SCORE.RESTR.CAVITY>
0.00221784

>  <SCORE.RESTR.norm>
9.6428e-05

>  <SCORE.SYSTEM>
0

>  <SCORE.SYSTEM.CONST>
0

>  <SCORE.SYSTEM.DIHEDRAL>
0

>  <SCORE.SYSTEM.norm>
0

>  <SCORE.heavy>
23

>  <SCORE.norm>
-0.728003

$$$$
design_2
 OpenBabel05252019093D

 26 28  0  0  0  0  0  0  0  0999 V2000
   40.0039  -46.3872   10.3089 N   0  0  0  0  0  0  0  0  0  0  0  0
   40.6534  -46.1925    9.0096 C   0  0  0  0  0  0  0  0  0  0  0  0
   41.5062  -45.2977    8.9531 O   0  0  0  0  0  0  0  0  0  0  0  0
   40.2150  -47.0785    7.9427 C   0  0  0  0  0  0  0  0  0  0  0  0
   39.2260  -47.9948    8.2468 C   0  0  0  0  0  0  0  0  0  0  0  0
   38.7129  -48.8113    7.2831 C   0  0  0  0  0  0  0  0  0  0  0  0
   39.1868  -48.7210    5.9938 C   0  0  0  0  0  0  0  0  0  0  0  0
   40.1791  -47.8109    5.6657 C   0  0  0  0  0  0  0  0  0  0  0  0
   40.7074  -46.9792    6.6316 C   0  0  0  0  0  0  0  0  0  0  0  0
   41.7666  -46.1335    6.3071 N   0  0  0  0  0  0  0  0  0  0  0  0
   41.7633  -44.8439    5.7618 C   0  0  0  0  0  0  0  0  0  0  0  0
   40.7594  -44.2110    5.4714 O   0  0  0  0  0  0  0  0  0  0  0  0
   43.0693  -44.1461    5.4969 C   0  0  1  0  0  0  0  0  0  0  0  0
   43.7255  -44.0170    6.8087 C   0  0  0  0  0  0  0  0  0  0  0  0
   44.7855  -45.0557    7.1030 C   0  0  0  0  0  0  0  0  0  0  0  0
   45.7873  -44.8868    5.9811 C   0  0  0  0  0  0  0  0  0  0  0  0
   45.0700  -45.4206    4.7288 C   0  0  0  0  0  0  0  0  0  0  0  0
   43.8202  -44.8228    4.4514 N   0  0  0  0  0  0  0  0  0  0  0  0
   43.2843  -44.8028    3.1420 C   0  0  0  0  0  0  0  0  0  0  0  0
   42.1843  -44.1048    2.9825 O   0  0  0  0  0  0  0  0  0  0  0  0
   43.7472  -45.4272    1.9261 C   0  0  0  0  0  0  0  0  0  0  0  0
   45.0503  -45.9632    1.9238 C   0  0  0  0  0  0  0  0  0  0  0  0
   45.6537  -46.5426    0.8428 C   0  0  0  0  0  0  0  0  0  0  0  0
   44.9189  -46.5974   -0.3207 C   0  0  0  0  0  0  0  0  0  0  0  0
   43.6439  -46.0886   -0.3730 C   0  0  0  0  0  0  0  0  0  0  0  0
   43.0775  -45.5139    0.7394 C   0  0  0  0  0  0  0  0  0  0  0  0
  1  2  1  0  0  0  0
  2  3  2  0  0  0  0
  2  4  1  0  0  0  0
  4  5  2  0  0  0  0
  5  6  1  0  0  0  0
  6  7  2  0  0  0  0
  7  8  1  0  0  0  0
  8  9  2  0  0  0  0
  9 10  1  0  0  0  0
  9  4  1  0  0  0  0
 10 11  1  0  0  0  0
 11 12  2  0  0  0  0
 13 11  1  1  0  0  0
 13 14  1  0  0  0  0
 14 15  1  0  0  0  0
 15 16  1  0  0  0  0
 16 17  1  0  0  0  0
 17 18  1  0  0  0  0
 18 19  1  0  0  0  0
 18 13  1  0  0  0  0
 19 20  2  0  0  0  0
 19 21  1  0  0  0  0
 21 22  2  0  0  0  0
 22 23  1  0  0  0  0
 23 24  2  0  0  0  0
 24 25  1  0  0  0  0
 25 26  2  0  0  0  0
 26 21  1  0  0  0  0
M  END
>  <CHROM.1>
0.92256520,-97.70001456,-61.37884237,-12.65523550,42.40139861,-45.87431188
5.18677582,-2.25480589,-0.59877042,-1.82484613

>  <Name>
design_2

>  <RI>
0

>  <Rbt.Current_Directory>
/home/ziqiaoxu/icml18-jtnn/VAEdesign

>  <Rbt.Executable>
rbdock ($Id: //depot/dev/client3/rdock/2013.1/src/exe/rbdock.cxx#4 $)

>  <Rbt.Library>
libRbt.so (2013.1, Build901 2013/11/27)

>  <Rbt.Parameter_File>
/export/apps/rDock/src/rDock_2013.1_src//data/scripts/dock.prm

>  <Rbt.Receptor>
/home/ziqiaoxu/icml18-jtnn/VAEdesign/targets/RdRp-SARS-CoV-2/pocket_docking.prm

>  <SCORE>
-19.3821

>  <SCORE.INTER>
-23.4173

>  <SCORE.INTER.CONST>
1

>  <SCORE.INTER.POLAR>
-1.92478

>  <SCORE.INTER.REPUL>
0

>  <SCORE.INTER.ROT>
4

>  <SCORE.INTER.VDW>
-26.2731

>  <SCORE.INTER.norm>
-0.900666

>  <SCORE.INTRA>
4.03517

>  <SCORE.INTRA.DIHEDRAL>
10.9142

>  <SCORE.INTRA.DIHEDRAL.0>
3.09642

>  <SCORE.INTRA.POLAR>
0

>  <SCORE.INTRA.POLAR.0>
0

>  <SCORE.INTRA.REPUL>
0

>  <SCORE.INTRA.REPUL.0>
0

>  <SCORE.INTRA.VDW>
-1.42194

>  <SCORE.INTRA.VDW.0>
-0.492069

>  <SCORE.INTRA.norm>
0.155199

>  <SCORE.RESTR>
0

>  <SCORE.RESTR.CAVITY>
0

>  <SCORE.RESTR.norm>
0

>  <SCORE.SYSTEM>
0

>  <SCORE.SYSTEM.CONST>
0

>  <SCORE.SYSTEM.DIHEDRAL>
0

>  <SCORE.SYSTEM.norm>
0

>  <SCORE.heavy>
26

>  <SCORE.norm>
-0.745467

$$$$
design_6
 OpenBabel05252019093D

 25 27  0  0  0  0  0  0  0  0999 V2000
   38.8209  -48.9851    6.8952 C   0  0  0  0  0  0  0  0  0  0  0  0
   38.4745  -47.5359    6.9612 C   0  0  2  0  0  0  0  0  0  0  0  0
   38.2953  -46.9064    5.6089 C   0  0  0  0  0  0  0  0  0  0  0  0
   38.3004  -45.3996    5.7155 C   0  0  0  0  0  0  0  0  0  0  0  0
   39.3917  -44.8507    5.5431 O   0  0  0  0  0  0  0  0  0  0  0  0
   37.1181  -44.7127    5.9937 N   0  0  0  0  0  0  0  0  0  0  0  0
   36.9041  -43.3275    6.1319 C   0  0  0  0  0  0  0  0  0  0  0  0
   35.6944  -42.7170    5.9418 C   0  0  0  0  0  0  0  0  0  0  0  0
   35.5680  -41.3567    6.0878 C   0  0  0  0  0  0  0  0  0  0  0  0
   36.6588  -40.5963    6.4272 C   0  0  0  0  0  0  0  0  0  0  0  0
   37.9125  -41.1635    6.6328 C   0  0  0  0  0  0  0  0  0  0  0  0
   39.0349  -40.3637    6.9829 N   0  0  0  0  0  0  0  0  0  0  0  0
   39.2543  -39.0220    6.6111 C   0  0  0  0  0  0  0  0  0  0  0  0
   40.2178  -38.3423    7.4691 C   0  0  0  0  0  0  0  0  0  0  0  0
   40.8757  -39.2134    8.4574 C   0  0  0  0  0  0  0  0  0  0  0  0
   40.3824  -40.8416    7.9412 S   0  0  0  0  0  0  0  0  0  0  0  0
   41.4501  -41.5030    7.1201 O   0  0  0  0  0  0  0  0  0  0  0  0
   39.9694  -41.6841    9.1096 O   0  0  0  0  0  0  0  0  0  0  0  0
   38.0070  -42.5269    6.4793 C   0  0  0  0  0  0  0  0  0  0  0  0
   39.4459  -46.8241    7.7961 C   0  0  0  0  0  0  0  0  0  0  0  0
   40.7799  -46.6422    7.4413 C   0  0  0  0  0  0  0  0  0  0  0  0
   41.6532  -45.9691    8.2540 C   0  0  0  0  0  0  0  0  0  0  0  0
   41.2499  -45.4398    9.4631 C   0  0  0  0  0  0  0  0  0  0  0  0
   39.9284  -45.6154    9.8231 C   0  0  0  0  0  0  0  0  0  0  0  0
   39.0410  -46.2954    9.0048 C   0  0  0  0  0  0  0  0  0  0  0  0
  2  1  1  6  0  0  0
  2  3  1  0  0  0  0
  2 20  1  0  0  0  0
  3  4  1  0  0  0  0
  4  5  2  0  0  0  0
  4  6  1  0  0  0  0
  6  7  1  0  0  0  0
  7  8  2  0  0  0  0
  8  9  1  0  0  0  0
  9 10  2  0  0  0  0
 10 11  1  0  0  0  0
 11 12  1  0  0  0  0
 11 19  2  0  0  0  0
 12 13  1  0  0  0  0
 13 14  1  0  0  0  0
 14 15  1  0  0  0  0
 15 16  1  0  0  0  0
 16 17  2  0  0  0  0
 16 18  2  0  0  0  0
 16 12  1  0  0  0  0
 19  7  1  0  0  0  0
 20 21  2  0  0  0  0
 21 22  1  0  0  0  0
 22 23  2  0  0  0  0
 23 24  1  0  0  0  0
 24 25  2  0  0  0  0
 25 20  1  0  0  0  0
M  END
>  <CHROM.1>
-165.47443326,93.54240115,156.14540908,-30.29587749,67.70243777,39.08765314
-43.34396461,7.23346049,1.59040970,0.55737543,3.13639093

>  <Name>
design_6

>  <RI>
0

>  <Rbt.Current_Directory>
/home/ziqiaoxu/icml18-jtnn/VAEdesign

>  <Rbt.Executable>
rbdock ($Id: //depot/dev/client3/rdock/2013.1/src/exe/rbdock.cxx#4 $)

>  <Rbt.Library>
libRbt.so (2013.1, Build901 2013/11/27)

>  <Rbt.Parameter_File>
/export/apps/rDock/src/rDock_2013.1_src//data/scripts/dock.prm

>  <Rbt.Receptor>
/home/ziqiaoxu/icml18-jtnn/VAEdesign/targets/RdRp-SARS-CoV-2/pocket_docking.prm

>  <SCORE>
-23.5611

>  <SCORE.INTER>
-15.8722

>  <SCORE.INTER.CONST>
1

>  <SCORE.INTER.POLAR>
0

>  <SCORE.INTER.REPUL>
0

>  <SCORE.INTER.ROT>
5

>  <SCORE.INTER.VDW>
-26.2722

>  <SCORE.INTER.norm>
-0.634887

>  <SCORE.INTRA>
-7.68888

>  <SCORE.INTRA.DIHEDRAL>
-6.27902

>  <SCORE.INTRA.DIHEDRAL.0>
14.8361

>  <SCORE.INTRA.POLAR>
0

>  <SCORE.INTRA.POLAR.0>
0

>  <SCORE.INTRA.REPUL>
0

>  <SCORE.INTRA.REPUL.0>
0

>  <SCORE.INTRA.VDW>
-4.54937

>  <SCORE.INTRA.VDW.0>
2.63583

>  <SCORE.INTRA.norm>
-0.307555

>  <SCORE.RESTR>
0

>  <SCORE.RESTR.CAVITY>
0

>  <SCORE.RESTR.norm>
0

>  <SCORE.SYSTEM>
0

>  <SCORE.SYSTEM.CONST>
0

>  <SCORE.SYSTEM.DIHEDRAL>
0

>  <SCORE.SYSTEM.norm>
0

>  <SCORE.heavy>
25

>  <SCORE.norm>
-0.942442

$$$$
design_1
 OpenBabel05252019093D

 24 27  0  0  0  0  0  0  0  0999 V2000
   45.3793  -43.9579    4.3259 O   0  0  0  0  0  0  0  0  0  0  0  0
   45.5777  -45.0240    4.9332 C   0  0  0  0  0  0  0  0  0  0  0  0
   45.1890  -45.1627    6.2795 N   0  0  0  0  0  0  0  0  0  0  0  0
   44.5446  -44.1087    7.0146 C   0  0  0  0  0  0  0  0  0  0  0  0
   44.0600  -44.5650    8.3501 C   0  0  0  0  0  0  0  0  0  0  0  0
   42.7815  -45.3451    8.2450 C   0  0  0  0  0  0  0  0  0  0  0  0
   42.4454  -46.1462    7.2127 N   0  0  0  0  0  0  0  0  0  0  0  0
   41.2411  -46.6993    7.4247 C   0  0  0  0  0  0  0  0  0  0  0  0
   40.4555  -47.5744    6.6950 C   0  0  0  0  0  0  0  0  0  0  0  0
   39.2197  -47.9950    7.1605 C   0  0  0  0  0  0  0  0  0  0  0  0
   38.7514  -47.5370    8.3788 C   0  0  0  0  0  0  0  0  0  0  0  0
   39.5579  -46.6666    9.0807 C   0  0  0  0  0  0  0  0  0  0  0  0
   40.7894  -46.2375    8.6334 C   0  0  0  0  0  0  0  0  0  0  0  0
   41.7526  -45.4147    9.1062 N   0  0  0  0  0  0  0  0  0  0  0  0
   46.1995  -46.1073    4.2654 N   0  0  0  0  0  0  0  0  0  0  0  0
   46.5935  -45.9647    2.8983 C   0  0  1  0  0  0  0  0  0  0  0  0
   47.3717  -47.1652    2.3900 C   0  0  0  0  0  0  0  0  0  0  0  0
   47.2596  -46.9403    0.8756 C   0  0  0  0  0  0  0  0  0  0  0  0
   45.8365  -46.5008    0.7776 C   0  0  0  0  0  0  0  0  0  0  0  0
   44.9157  -46.5711   -0.2394 C   0  0  0  0  0  0  0  0  0  0  0  0
   43.6249  -46.0854   -0.0905 C   0  0  0  0  0  0  0  0  0  0  0  0
   43.2537  -45.5129    1.1184 C   0  0  0  0  0  0  0  0  0  0  0  0
   44.1637  -45.4383    2.1371 C   0  0  0  0  0  0  0  0  0  0  0  0
   45.4413  -45.9276    1.9668 C   0  0  0  0  0  0  0  0  0  0  0  0
  1  2  2  0  0  0  0
  2  3  1  0  0  0  0
  2 15  1  0  0  0  0
  3  4  1  0  0  0  0
  4  5  1  0  0  0  0
  5  6  1  0  0  0  0
  6  7  2  0  0  0  0
  7  8  1  0  0  0  0
  8  9  2  0  0  0  0
  9 10  1  0  0  0  0
 10 11  2  0  0  0  0
 11 12  1  0  0  0  0
 12 13  2  0  0  0  0
 13 14  1  0  0  0  0
 13  8  1  0  0  0  0
 14  6  1  0  0  0  0
 16 15  1  1  0  0  0
 16 17  1  0  0  0  0
 17 18  1  0  0  0  0
 18 19  1  0  0  0  0
 19 20  2  0  0  0  0
 20 21  1  0  0  0  0
 21 22  2  0  0  0  0
 22 23  1  0  0  0  0
 23 24  2  0  0  0  0
 24 16  1  0  0  0  0
 24 19  1  0  0  0  0
M  END
>  <CHROM.1>
171.78550778,-78.15182990,33.11002669,173.94936644,43.65623837,-46.00073676
4.98198863,-0.88433895,0.37973710,1.31674492

>  <Name>
design_1

>  <RI>
0

>  <Rbt.Current_Directory>
/home/ziqiaoxu/icml18-jtnn/VAEdesign

>  <Rbt.Executable>
rbdock ($Id: //depot/dev/client3/rdock/2013.1/src/exe/rbdock.cxx#4 $)

>  <Rbt.Library>
libRbt.so (2013.1, Build901 2013/11/27)

>  <Rbt.Parameter_File>
/export/apps/rDock/src/rDock_2013.1_src//data/scripts/dock.prm

>  <Rbt.Receptor>
/home/ziqiaoxu/icml18-jtnn/VAEdesign/targets/RdRp-SARS-CoV-2/pocket_docking.prm

>  <SCORE>
-19.4127

>  <SCORE.INTER>
-21.0994

>  <SCORE.INTER.CONST>
1

>  <SCORE.INTER.POLAR>
-1.24338

>  <SCORE.INTER.REPUL>
0

>  <SCORE.INTER.ROT>
4

>  <SCORE.INTER.VDW>
-26.2719

>  <SCORE.INTER.norm>
-0.879143

>  <SCORE.INTRA>
1.68672

>  <SCORE.INTRA.DIHEDRAL>
1.14653

>  <SCORE.INTRA.DIHEDRAL.0>
3.75274

>  <SCORE.INTRA.POLAR>
0

>  <SCORE.INTRA.POLAR.0>
0

>  <SCORE.INTRA.REPUL>
0

>  <SCORE.INTRA.REPUL.0>
0

>  <SCORE.INTRA.VDW>
1.11346

>  <SCORE.INTRA.VDW.0>
-1.94552

>  <SCORE.INTRA.norm>
0.0702801

>  <SCORE.RESTR>
0

>  <SCORE.RESTR.CAVITY>
0

>  <SCORE.RESTR.norm>
0

>  <SCORE.SYSTEM>
0

>  <SCORE.SYSTEM.CONST>
0

>  <SCORE.SYSTEM.DIHEDRAL>
0

>  <SCORE.SYSTEM.norm>
0

>  <SCORE.heavy>
24

>  <SCORE.norm>
-0.808863

$$$$
design_5
 OpenBabel05252019093D

 25 27  0  0  0  0  0  0  0  0999 V2000
   39.8124  -48.2753    6.3800 C   0  0  0  0  0  0  0  0  0  0  0  0
   40.0302  -47.3810    7.5492 C   0  0  0  0  0  0  0  0  0  0  0  0
   39.0651  -47.2882    8.5250 C   0  0  0  0  0  0  0  0  0  0  0  0
   39.2434  -46.4641    9.6218 C   0  0  0  0  0  0  0  0  0  0  0  0
   40.4101  -45.7375    9.7159 C   0  0  0  0  0  0  0  0  0  0  0  0
   41.3970  -45.8028    8.7634 C   0  0  0  0  0  0  0  0  0  0  0  0
   42.6363  -45.0070    8.8843 C   0  0  0  0  0  0  0  0  0  0  0  0
   42.7037  -44.2482    9.8718 O   0  0  0  0  0  0  0  0  0  0  0  0
   43.6833  -45.0935    7.9474 N   0  0  0  0  0  0  0  0  0  0  0  0
   44.9023  -44.3896    7.9809 C   0  0  0  0  0  0  0  0  0  0  0  0
   45.2246  -43.6583    9.0781 C   0  0  0  0  0  0  0  0  0  0  0  0
   46.4593  -43.0221    9.2290 C   0  0  0  0  0  0  0  0  0  0  0  0
   47.3784  -43.1393    8.2375 C   0  0  0  0  0  0  0  0  0  0  0  0
   47.0620  -43.8772    7.1213 C   0  0  0  0  0  0  0  0  0  0  0  0
   45.8453  -44.5209    6.9373 C   0  0  0  0  0  0  0  0  0  0  0  0
   45.5385  -45.2175    5.7018 C   0  0  0  0  0  0  0  0  0  0  0  0
   44.3788  -45.3990    5.2955 O   0  0  0  0  0  0  0  0  0  0  0  0
   46.5656  -45.7341    4.8864 N   0  0  0  0  0  0  0  0  0  0  0  0
   46.4279  -46.4489    3.6573 C   0  0  0  0  0  0  0  0  0  0  0  0
   47.5067  -47.3998    3.3023 C   0  0  2  0  0  0  0  0  0  0  0  0
   48.7484  -46.5973    2.9435 C   0  0  0  0  0  0  0  0  0  0  0  0
   49.3283  -47.3792    1.8088 C   0  0  0  0  0  0  0  0  0  0  0  0
   48.1108  -48.0745    1.2453 C   0  0  0  0  0  0  0  0  0  0  0  0
   47.3015  -48.3078    2.3246 O   0  0  0  0  0  0  0  0  0  0  0  0
   41.2016  -46.6256    7.6828 C   0  0  0  0  0  0  0  0  0  0  0  0
  1  2  1  0  0  0  0
  2  3  2  0  0  0  0
  3  4  1  0  0  0  0
  4  5  2  0  0  0  0
  5  6  1  0  0  0  0
  6  7  1  0  0  0  0
  6 25  2  0  0  0  0
  7  8  2  0  0  0  0
  7  9  1  0  0  0  0
  9 10  1  0  0  0  0
 10 11  2  0  0  0  0
 11 12  1  0  0  0  0
 12 13  2  0  0  0  0
 13 14  1  0  0  0  0
 14 15  2  0  0  0  0
 15 16  1  0  0  0  0
 15 10  1  0  0  0  0
 16 17  2  0  0  0  0
 16 18  1  0  0  0  0
 18 19  1  0  0  0  0
 20 19  1  6  0  0  0
 20 21  1  0  0  0  0
 21 22  1  0  0  0  0
 22 23  1  0  0  0  0
 23 24  1  0  0  0  0
 24 20  1  0  0  0  0
 25  2  1  0  0  0  0
M  END
>  <CHROM.1>
-2.36661035,8.43890472,21.73809797,-152.63601125,-70.46504345,44.49379201
-45.84342282,6.49459016,2.55019871,0.39236754,0.90131985

>  <Name>
design_5

>  <RI>
0

>  <Rbt.Current_Directory>
/home/ziqiaoxu/icml18-jtnn/VAEdesign

>  <Rbt.Executable>
rbdock ($Id: //depot/dev/client3/rdock/2013.1/src/exe/rbdock.cxx#4 $)

>  <Rbt.Library>
libRbt.so (2013.1, Build901 2013/11/27)

>  <Rbt.Parameter_File>
/export/apps/rDock/src/rDock_2013.1_src//data/scripts/dock.prm

>  <Rbt.Receptor>
/home/ziqiaoxu/icml18-jtnn/VAEdesign/targets/RdRp-SARS-CoV-2/pocket_docking.prm

>  <SCORE>
-15.9523

>  <SCORE.INTER>
-16.6232

>  <SCORE.INTER.CONST>
1

>  <SCORE.INTER.POLAR>
-0.263667

>  <SCORE.INTER.REPUL>
0.0289132

>  <SCORE.INTER.ROT>
5

>  <SCORE.INTER.VDW>
-26.2713

>  <SCORE.INTER.norm>
-0.664927

>  <SCORE.INTRA>
0.67089

>  <SCORE.INTRA.DIHEDRAL>
-0.483762

>  <SCORE.INTRA.DIHEDRAL.0>
4.46592

>  <SCORE.INTRA.POLAR>
0

>  <SCORE.INTRA.POLAR.0>
0

>  <SCORE.INTRA.REPUL>
0

>  <SCORE.INTRA.REPUL.0>
0

>  <SCORE.INTRA.VDW>
0.912771

>  <SCORE.INTRA.VDW.0>
-1.41965

>  <SCORE.INTRA.norm>
0.0268356

>  <SCORE.RESTR>
0

>  <SCORE.RESTR.CAVITY>
0

>  <SCORE.RESTR.norm>
0

>  <SCORE.SYSTEM>
0

>  <SCORE.SYSTEM.CONST>
0

>  <SCORE.SYSTEM.DIHEDRAL>
0

>  <SCORE.SYSTEM.norm>
0

>  <SCORE.heavy>
25

>  <SCORE.norm>
-0.638091

$$$$
design_8
 OpenBabel05252019093D

 21 22  0  0  0  0  0  0  0  0999 V2000
   41.0670  -44.6284   10.8086 C   0  0  0  0  0  0  0  0  0  0  0  0
   40.7178  -45.4862    9.6321 C   0  0  0  0  0  0  0  0  0  0  0  0
   41.4620  -45.5536    8.4958 C   0  0  0  0  0  0  0  0  0  0  0  0
   41.0849  -46.3657    7.4449 C   0  0  0  0  0  0  0  0  0  0  0  0
   39.9421  -47.1294    7.5226 C   0  0  0  0  0  0  0  0  0  0  0  0
   39.4927  -48.1467    6.1746 S   0  0  0  0  0  0  0  0  0  0  0  0
   40.4862  -47.9369    5.0937 O   0  0  0  0  0  0  0  0  0  0  0  0
   39.5125  -49.5706    6.6788 O   0  0  0  0  0  0  0  0  0  0  0  0
   37.8879  -47.7268    5.7408 N   0  0  0  0  0  0  0  0  0  0  0  0
   37.4082  -46.4021    5.7925 C   0  0  0  0  0  0  0  0  0  0  0  0
   38.2680  -45.3550    6.1404 C   0  0  0  0  0  0  0  0  0  0  0  0
   37.7942  -44.0672    6.1842 C   0  0  0  0  0  0  0  0  0  0  0  0
   36.4922  -43.7924    5.8924 C   0  0  0  0  0  0  0  0  0  0  0  0
   35.8278  -42.1601    5.9319 S   0  0  0  0  0  0  0  0  0  0  0  0
   37.0591  -41.0531    6.5831 C   0  0  0  0  0  0  0  0  0  0  0  0
   34.5928  -42.1177    6.7790 O   0  0  0  0  0  0  0  0  0  0  0  0
   35.4972  -41.7205    4.5342 O   0  0  0  0  0  0  0  0  0  0  0  0
   35.6661  -44.8287    5.5545 C   0  0  0  0  0  0  0  0  0  0  0  0
   36.0904  -46.1530    5.4937 C   0  0  0  0  0  0  0  0  0  0  0  0
   39.1728  -47.0770    8.6638 C   0  0  0  0  0  0  0  0  0  0  0  0
   39.5796  -46.2565    9.6908 C   0  0  0  0  0  0  0  0  0  0  0  0
  1  2  1  0  0  0  0
  2  3  2  0  0  0  0
  3  4  1  0  0  0  0
  4  5  2  0  0  0  0
  5  6  1  0  0  0  0
  5 20  1  0  0  0  0
  6  7  2  0  0  0  0
  6  8  2  0  0  0  0
  6  9  1  0  0  0  0
  9 10  1  0  0  0  0
 10 11  2  0  0  0  0
 11 12  1  0  0  0  0
 12 13  2  0  0  0  0
 13 14  1  0  0  0  0
 13 18  1  0  0  0  0
 14 15  1  0  0  0  0
 14 16  2  0  0  0  0
 14 17  2  0  0  0  0
 18 19  2  0  0  0  0
 19 10  1  0  0  0  0
 20 21  2  0  0  0  0
 21  2  1  0  0  0  0
M  END
>  <CHROM.1>
-2.23121205,36.64197565,3.45584670,-6.65577153,38.22940601,-45.35507498,6.76717114
-0.53446740,-0.73935138,0.52830283

>  <Name>
design_8

>  <RI>
0

>  <Rbt.Current_Directory>
/home/ziqiaoxu/icml18-jtnn/VAEdesign

>  <Rbt.Executable>
rbdock ($Id: //depot/dev/client3/rdock/2013.1/src/exe/rbdock.cxx#4 $)

>  <Rbt.Library>
libRbt.so (2013.1, Build901 2013/11/27)

>  <Rbt.Parameter_File>
/export/apps/rDock/src/rDock_2013.1_src//data/scripts/dock.prm

>  <Rbt.Receptor>
/home/ziqiaoxu/icml18-jtnn/VAEdesign/targets/RdRp-SARS-CoV-2/pocket_docking.prm

>  <SCORE>
-19.0286

>  <SCORE.INTER>
-16.8669

>  <SCORE.INTER.CONST>
1

>  <SCORE.INTER.POLAR>
0

>  <SCORE.INTER.REPUL>
0.000827605

>  <SCORE.INTER.ROT>
4

>  <SCORE.INTER.VDW>
-26.271

>  <SCORE.INTER.norm>
-0.803184

>  <SCORE.INTRA>
-2.16169

>  <SCORE.INTRA.DIHEDRAL>
-6.71828

>  <SCORE.INTRA.DIHEDRAL.0>
10.3619

>  <SCORE.INTRA.POLAR>
0

>  <SCORE.INTRA.POLAR.0>
0

>  <SCORE.INTRA.REPUL>
0

>  <SCORE.INTRA.REPUL.0>
0

>  <SCORE.INTRA.VDW>
1.19745

>  <SCORE.INTRA.VDW.0>
-2.94706

>  <SCORE.INTRA.norm>
-0.102937

>  <SCORE.RESTR>
0

>  <SCORE.RESTR.CAVITY>
0

>  <SCORE.RESTR.norm>
0

>  <SCORE.SYSTEM>
0

>  <SCORE.SYSTEM.CONST>
0

>  <SCORE.SYSTEM.DIHEDRAL>
0

>  <SCORE.SYSTEM.norm>
0

>  <SCORE.heavy>
21

>  <SCORE.norm>
-0.906121

$$$$
design_16
 OpenBabel05252019093D

 23 25  0  0  0  0  0  0  0  0999 V2000
   35.2823  -40.1150    5.5778 C   0  0  0  0  0  0  0  0  0  0  0  0
   35.2598  -41.3672    4.8540 N   0  0  0  0  0  0  0  0  0  0  0  0
   35.7197  -42.5591    5.4655 C   0  0  0  0  0  0  0  0  0  0  0  0
   36.1479  -42.5320    6.6365 O   0  0  0  0  0  0  0  0  0  0  0  0
   35.6931  -43.8113    4.7304 N   0  0  0  0  0  0  0  0  0  0  0  0
   36.1610  -44.9635    5.3846 C   0  0  0  0  0  0  0  0  0  0  0  0
   37.5652  -45.2355    5.4543 C   0  0  0  0  0  0  0  0  0  0  0  0
   38.3169  -44.1824    5.1652 O   0  0  0  0  0  0  0  0  0  0  0  0
   38.3449  -46.3563    5.7570 N   0  0  0  0  0  0  0  0  0  0  0  0
   37.9482  -47.6757    6.1021 C   0  0  0  0  0  0  0  0  0  0  0  0
   39.2087  -48.4819    6.2832 C   0  0  0  0  0  0  0  0  0  0  0  0
   40.2254  -47.4437    6.6676 C   0  0  2  0  0  0  0  0  0  0  0  0
   40.2575  -47.2492    8.1021 C   0  0  2  0  0  0  0  0  0  0  0  0
   39.0990  -46.7957    8.8704 C   0  0  0  0  0  0  0  0  0  0  0  0
   39.6708  -46.0242    9.9881 N   0  0  0  0  0  0  0  0  0  0  0  0
   40.9138  -45.4966    9.5534 C   0  0  0  0  0  0  0  0  0  0  0  0
   41.7367  -44.4770   10.0304 C   0  0  0  0  0  0  0  0  0  0  0  0
   42.9125  -44.1571    9.4115 C   0  0  0  0  0  0  0  0  0  0  0  0
   43.2954  -44.8541    8.2936 C   0  0  0  0  0  0  0  0  0  0  0  0
   44.5773  -44.5399    7.5796 C   0  0  0  0  0  0  0  0  0  0  0  0
   42.4737  -45.8564    7.8356 C   0  0  0  0  0  0  0  0  0  0  0  0
   41.2832  -46.1980    8.4419 C   0  0  0  0  0  0  0  0  0  0  0  0
   39.8316  -46.3469    5.7746 C   0  0  0  0  0  0  0  0  0  0  0  0
  1  2  1  0  0  0  0
  2  3  1  0  0  0  0
  3  4  2  0  0  0  0
  3  5  1  0  0  0  0
  5  6  1  0  0  0  0
  6  7  1  0  0  0  0
  7  8  2  0  0  0  0
  7  9  1  0  0  0  0
  9 10  1  0  0  0  0
 10 11  1  0  0  0  0
 12 11  1  1  0  0  0
 12 13  1  0  0  0  0
 12 23  1  0  0  0  0
 13 14  1  6  0  0  0
 14 15  1  0  0  0  0
 15 16  1  0  0  0  0
 16 17  2  0  0  0  0
 17 18  1  0  0  0  0
 18 19  2  0  0  0  0
 19 20  1  0  0  0  0
 19 21  1  0  0  0  0
 21 22  2  0  0  0  0
 22 13  1  0  0  0  0
 22 16  1  0  0  0  0
 23  9  1  0  0  0  0
M  END
>  <CHROM.1>
-81.43998707,15.78832048,-60.59086966,39.11446689,-45.01714669,6.98203992
-2.78726652,0.52889183,-3.01033784

>  <Name>
design_16

>  <RI>
0

>  <Rbt.Current_Directory>
/home/ziqiaoxu/icml18-jtnn/VAEdesign

>  <Rbt.Executable>
rbdock ($Id: //depot/dev/client3/rdock/2013.1/src/exe/rbdock.cxx#4 $)

>  <Rbt.Library>
libRbt.so (2013.1, Build901 2013/11/27)

>  <Rbt.Parameter_File>
/export/apps/rDock/src/rDock_2013.1_src//data/scripts/dock.prm

>  <Rbt.Receptor>
/home/ziqiaoxu/icml18-jtnn/VAEdesign/targets/RdRp-SARS-CoV-2/pocket_docking.prm

>  <SCORE>
-21.3813

>  <SCORE.INTER>
-21.2928

>  <SCORE.INTER.CONST>
1

>  <SCORE.INTER.POLAR>
-1.00651

>  <SCORE.INTER.REPUL>
0

>  <SCORE.INTER.ROT>
3

>  <SCORE.INTER.VDW>
-26.2707

>  <SCORE.INTER.norm>
-0.925774

>  <SCORE.INTRA>
-0.0884568

>  <SCORE.INTRA.DIHEDRAL>
-0.00681969

>  <SCORE.INTRA.DIHEDRAL.0>
2.58041

>  <SCORE.INTRA.POLAR>
0

>  <SCORE.INTRA.POLAR.0>
0

>  <SCORE.INTRA.REPUL>
0

>  <SCORE.INTRA.REPUL.0>
0

>  <SCORE.INTRA.VDW>
-0.085047

>  <SCORE.INTRA.VDW.0>
-0.22728

>  <SCORE.INTRA.norm>
-0.00384595

>  <SCORE.RESTR>
0

>  <SCORE.RESTR.CAVITY>
0

>  <SCORE.RESTR.norm>
0

>  <SCORE.SYSTEM>
0

>  <SCORE.SYSTEM.CONST>
0

>  <SCORE.SYSTEM.DIHEDRAL>
0

>  <SCORE.SYSTEM.norm>
0

>  <SCORE.heavy>
23

>  <SCORE.norm>
-0.92962

$$$$
design_5
 OpenBabel05252019093D

 24 27  0  0  0  0  0  0  0  0999 V2000
   34.2559  -41.2719    6.8076 C   0  0  0  0  0  0  0  0  0  0  0  0
   35.7517  -41.0876    6.9674 C   0  0  0  0  0  0  0  0  0  0  0  0
   36.1393  -39.9528    6.0142 C   0  0  0  0  0  0  0  0  0  0  0  0
   36.4653  -42.2959    6.5453 C   0  0  0  0  0  0  0  0  0  0  0  0
   35.9527  -43.2649    5.7653 N   0  0  0  0  0  0  0  0  0  0  0  0
   36.9006  -44.2029    5.5976 C   0  0  0  0  0  0  0  0  0  0  0  0
   36.7617  -45.4453    4.8093 C   0  0  0  0  0  0  0  0  0  0  0  0
   37.0537  -46.6652    5.6168 C   0  0  0  0  0  0  0  0  0  0  0  0
   38.4227  -46.6141    5.1848 N   0  0  0  0  0  0  0  0  0  0  0  0
   39.6430  -47.1256    5.6531 C   0  0  0  0  0  0  0  0  0  0  0  0
   40.7144  -46.8924    5.0201 O   0  0  0  0  0  0  0  0  0  0  0  0
   39.6455  -47.9389    6.8965 C   0  0  0  0  0  0  0  0  0  0  0  0
   39.8298  -47.0228    8.0501 C   0  0  0  0  0  0  0  0  0  0  0  0
   38.9855  -46.7964    9.1146 C   0  0  0  0  0  0  0  0  0  0  0  0
   39.5377  -45.8860    9.9355 N   0  0  0  0  0  0  0  0  0  0  0  0
   40.7478  -45.4785    9.4592 C   0  0  0  0  0  0  0  0  0  0  0  0
   41.6940  -44.5902    9.9038 C   0  0  0  0  0  0  0  0  0  0  0  0
   42.8337  -44.4056    9.1699 C   0  0  0  0  0  0  0  0  0  0  0  0
   43.0335  -45.1041    7.9939 C   0  0  0  0  0  0  0  0  0  0  0  0
   42.0822  -45.9959    7.5490 C   0  0  0  0  0  0  0  0  0  0  0  0
   40.9114  -46.2024    8.2785 C   0  0  0  0  0  0  0  0  0  0  0  0
   38.0171  -45.8120    4.0593 C   0  0  0  0  0  0  0  0  0  0  0  0
   37.9781  -43.7886    6.2805 N   0  0  0  0  0  0  0  0  0  0  0  0
   37.6845  -42.6334    6.8423 O   0  0  0  0  0  0  0  0  0  0  0  0
  1  2  1  0  0  0  0
  2  3  1  0  0  0  0
  2  4  1  0  0  0  0
  4  5  2  0  0  0  0
  5  6  1  0  0  0  0
  6  7  1  0  0  0  0
  6 23  2  0  0  0  0
  7  8  1  0  0  0  0
  8  9  1  0  0  0  0
  9 10  1  0  0  0  0
  9 22  1  0  0  0  0
 10 11  2  0  0  0  0
 10 12  1  0  0  0  0
 12 13  1  0  0  0  0
 13 14  2  0  0  0  0
 14 15  1  0  0  0  0
 15 16  1  0  0  0  0
 16 17  2  0  0  0  0
 17 18  1  0  0  0  0
 18 19  2  0  0  0  0
 19 20  1  0  0  0  0
 20 21  2  0  0  0  0
 21 13  1  0  0  0  0
 21 16  1  0  0  0  0
 22  7  1  0  0  0  0
 23 24  1  0  0  0  0
 24  4  1  0  0  0  0
M  END
>  <CHROM.1>
18.61429231,-123.93494432,-89.46111009,119.08267833,38.73670619,-44.80936574
6.94422396,-2.82637020,0.64383885,-2.52709592

>  <Name>
design_5

>  <RI>
0

>  <Rbt.Current_Directory>
/home/ziqiaoxu/icml18-jtnn/VAEdesign

>  <Rbt.Executable>
rbdock ($Id: //depot/dev/client3/rdock/2013.1/src/exe/rbdock.cxx#4 $)

>  <Rbt.Library>
libRbt.so (2013.1, Build901 2013/11/27)

>  <Rbt.Parameter_File>
/export/apps/rDock/src/rDock_2013.1_src//data/scripts/dock.prm

>  <Rbt.Receptor>
/home/ziqiaoxu/icml18-jtnn/VAEdesign/targets/RdRp-SARS-CoV-2/pocket_docking.prm

>  <SCORE>
-21.2534

>  <SCORE.INTER>
-20.337

>  <SCORE.INTER.CONST>
1

>  <SCORE.INTER.POLAR>
-1.0198

>  <SCORE.INTER.REPUL>
0

>  <SCORE.INTER.ROT>
4

>  <SCORE.INTER.VDW>
-26.2697

>  <SCORE.INTER.norm>
-0.847377

>  <SCORE.INTRA>
-0.916338

>  <SCORE.INTRA.DIHEDRAL>
-0.454655

>  <SCORE.INTRA.DIHEDRAL.0>
3.90882

>  <SCORE.INTRA.POLAR>
0

>  <SCORE.INTRA.POLAR.0>
0

>  <SCORE.INTRA.REPUL>
0

>  <SCORE.INTRA.REPUL.0>
0

>  <SCORE.INTRA.VDW>
-0.689011

>  <SCORE.INTRA.VDW.0>
-1.27839

>  <SCORE.INTRA.norm>
-0.0381808

>  <SCORE.RESTR>
0

>  <SCORE.RESTR.CAVITY>
0

>  <SCORE.RESTR.norm>
0

>  <SCORE.SYSTEM>
0

>  <SCORE.SYSTEM.CONST>
0

>  <SCORE.SYSTEM.DIHEDRAL>
0

>  <SCORE.SYSTEM.norm>
0

>  <SCORE.heavy>
24

>  <SCORE.norm>
-0.885557

$$$$
design_5
 OpenBabel05252019093D

 26 28  0  0  0  0  0  0  0  0999 V2000
   37.3177  -42.4088    6.2086 C   0  0  0  0  0  0  0  0  0  0  0  0
   37.1815  -43.8891    6.1615 C   0  0  0  0  0  0  0  0  0  0  0  0
   36.1037  -44.5923    5.7284 N   0  0  0  0  0  0  0  0  0  0  0  0
   36.3510  -45.8847    5.8358 N   0  0  0  0  0  0  0  0  0  0  0  0
   37.5963  -46.0542    6.3415 C   0  0  0  0  0  0  0  0  0  0  0  0
   38.3264  -47.3042    6.6443 C   0  0  1  0  0  0  0  0  0  0  0  0
   39.8168  -47.0468    6.7096 C   0  0  0  0  0  0  0  0  0  0  0  0
   40.0948  -46.3449    7.9451 N   0  0  0  0  0  0  0  0  0  0  0  0
   41.4163  -45.8500    8.1371 C   0  0  0  0  0  0  0  0  0  0  0  0
   41.6760  -45.2398    9.1999 O   0  0  0  0  0  0  0  0  0  0  0  0
   42.4837  -46.0248    7.1365 C   0  0  0  0  0  0  0  0  0  0  0  0
   43.1490  -44.7487    6.7242 C   0  0  0  0  0  0  0  0  0  0  0  0
   44.6329  -44.7297    6.9028 C   0  0  0  0  0  0  0  0  0  0  0  0
   44.9840  -44.9177    8.2817 N   0  0  0  0  0  0  0  0  0  0  0  0
   44.4838  -44.1994    9.3851 C   0  0  0  0  0  0  0  0  0  0  0  0
   43.6244  -43.2887    9.1543 O   0  0  0  0  0  0  0  0  0  0  0  0
   44.8903  -44.4375   10.7626 C   0  0  0  0  0  0  0  0  0  0  0  0
   44.1872  -43.9648   11.8444 C   0  0  0  0  0  0  0  0  0  0  0  0
   44.5977  -44.2068   13.1504 C   0  0  0  0  0  0  0  0  0  0  0  0
   45.7334  -44.9352   13.3967 C   0  0  0  0  0  0  0  0  0  0  0  0
   46.4467  -45.4144   12.3230 C   0  0  0  0  0  0  0  0  0  0  0  0
   46.0278  -45.1666   11.0361 C   0  0  0  0  0  0  0  0  0  0  0  0
   39.1169  -46.1278    8.9698 C   0  0  0  0  0  0  0  0  0  0  0  0
   37.9575  -47.0603    8.9188 C   0  0  0  0  0  0  0  0  0  0  0  0
   37.9495  -47.8969    7.8257 O   0  0  0  0  0  0  0  0  0  0  0  0
   38.0782  -44.8259    6.5301 N   0  0  0  0  0  0  0  0  0  0  0  0
  1  2  1  0  0  0  0
  2  3  2  0  0  0  0
  3  4  1  0  0  0  0
  4  5  1  0  0  0  0
  5 26  2  0  0  0  0
  6  5  1  1  0  0  0
  6  7  1  0  0  0  0
  7  8  1  0  0  0  0
  8  9  1  0  0  0  0
  8 23  1  0  0  0  0
  9 10  2  0  0  0  0
  9 11  1  0  0  0  0
 11 12  1  0  0  0  0
 12 13  1  0  0  0  0
 13 14  1  0  0  0  0
 14 15  1  0  0  0  0
 15 16  2  0  0  0  0
 15 17  1  0  0  0  0
 17 18  2  0  0  0  0
 18 19  1  0  0  0  0
 19 20  2  0  0  0  0
 20 21  1  0  0  0  0
 21 22  2  0  0  0  0
 22 17  1  0  0  0  0
 23 24  1  0  0  0  0
 24 25  1  0  0  0  0
 25  6  1  0  0  0  0
 26  2  1  0  0  0  0
M  END
>  <CHROM.1>
159.42691521,125.96678023,124.16778972,-60.58518363,-51.50378539,-164.30675716
41.25493252,-45.26499756,8.46016010,-2.73197736,0.35750367,2.04314330

>  <Name>
design_5

>  <RI>
0

>  <Rbt.Current_Directory>
/home/ziqiaoxu/icml18-jtnn/VAEdesign

>  <Rbt.Executable>
rbdock ($Id: //depot/dev/client3/rdock/2013.1/src/exe/rbdock.cxx#4 $)

>  <Rbt.Library>
libRbt.so (2013.1, Build901 2013/11/27)

>  <Rbt.Parameter_File>
/export/apps/rDock/src/rDock_2013.1_src//data/scripts/dock.prm

>  <Rbt.Receptor>
/home/ziqiaoxu/icml18-jtnn/VAEdesign/targets/RdRp-SARS-CoV-2/pocket_docking.prm

>  <SCORE>
-18.2453

>  <SCORE.INTER>
-21.0364

>  <SCORE.INTER.CONST>
1

>  <SCORE.INTER.POLAR>
-1.83657

>  <SCORE.INTER.REPUL>
0.0141252

>  <SCORE.INTER.ROT>
6

>  <SCORE.INTER.VDW>
-26.2627

>  <SCORE.INTER.norm>
-0.809091

>  <SCORE.INTRA>
2.79111

>  <SCORE.INTRA.DIHEDRAL>
7.6312

>  <SCORE.INTRA.DIHEDRAL.0>
3.56243

>  <SCORE.INTRA.POLAR>
0

>  <SCORE.INTRA.POLAR.0>
0

>  <SCORE.INTRA.REPUL>
0

>  <SCORE.INTRA.REPUL.0>
0

>  <SCORE.INTRA.VDW>
-1.02449

>  <SCORE.INTRA.VDW.0>
-0.80785

>  <SCORE.INTRA.norm>
0.10735

>  <SCORE.RESTR>
0

>  <SCORE.RESTR.CAVITY>
0

>  <SCORE.RESTR.norm>
0

>  <SCORE.SYSTEM>
0

>  <SCORE.SYSTEM.CONST>
0

>  <SCORE.SYSTEM.DIHEDRAL>
0

>  <SCORE.SYSTEM.norm>
0

>  <SCORE.heavy>
26

>  <SCORE.norm>
-0.70174

$$$$
design_9
 OpenBabel05252019093D

 24 25  0  0  0  0  0  0  0  0999 V2000
   45.3962  -44.9183   11.7017 C   0  0  0  0  0  0  0  0  0  0  0  0
   44.5329  -43.9212   11.0417 C   0  0  0  0  0  0  0  0  0  0  0  0
   44.1370  -44.1811    9.6230 C   0  0  0  0  0  0  0  0  0  0  0  0
   42.9444  -44.0138    9.3080 O   0  0  0  0  0  0  0  0  0  0  0  0
   45.0914  -44.6012    8.7015 N   0  0  0  0  0  0  0  0  0  0  0  0
   44.9202  -44.8805    7.3438 C   0  0  0  0  0  0  0  0  0  0  0  0
   46.0028  -44.6079    6.4880 C   0  0  0  0  0  0  0  0  0  0  0  0
   45.8495  -44.7907    5.1443 C   0  0  0  0  0  0  0  0  0  0  0  0
   44.6758  -45.2336    4.5870 C   0  0  0  0  0  0  0  0  0  0  0  0
   43.6002  -45.5047    5.4272 C   0  0  0  0  0  0  0  0  0  0  0  0
   42.3195  -45.9707    4.8016 C   0  0  0  0  0  0  0  0  0  0  0  0
   42.2777  -45.6882    3.5868 O   0  0  0  0  0  0  0  0  0  0  0  0
   41.3502  -46.6224    5.5068 N   0  0  0  0  0  0  0  0  0  0  0  0
   40.4066  -47.2561    6.1899 C   0  0  0  0  0  0  0  0  0  0  0  0
   39.5395  -48.2161    5.6872 C   0  0  0  0  0  0  0  0  0  0  0  0
   38.6693  -48.9699    6.4266 C   0  0  0  0  0  0  0  0  0  0  0  0
   38.6357  -48.7760    7.7858 C   0  0  0  0  0  0  0  0  0  0  0  0
   39.4571  -47.8481    8.3602 C   0  0  0  0  0  0  0  0  0  0  0  0
   40.3210  -47.1020    7.5979 C   0  0  0  0  0  0  0  0  0  0  0  0
   41.1560  -46.0776    8.2753 C   0  0  0  0  0  0  0  0  0  0  0  0
   40.3932  -45.4678    9.3990 C   0  0  0  0  0  0  0  0  0  0  0  0
   39.9187  -46.1987   10.5261 N   0  0  0  0  0  0  0  0  0  0  0  0
   40.1029  -44.2194    9.4320 O   0  0  0  0  0  0  0  0  0  0  0  0
   43.7174  -45.3314    6.7856 C   0  0  0  0  0  0  0  0  0  0  0  0
  1  2  1  0  0  0  0
  2  3  1  0  0  0  0
  3  4  2  0  0  0  0
  3  5  1  0  0  0  0
  5  6  1  0  0  0  0
  6  7  2  0  0  0  0
  7  8  1  0  0  0  0
  8  9  2  0  0  0  0
  9 10  1  0  0  0  0
 10 11  1  0  0  0  0
 10 24  2  0  0  0  0
 11 12  2  0  0  0  0
 11 13  1  0  0  0  0
 13 14  1  0  0  0  0
 14 15  2  0  0  0  0
 15 16  1  0  0  0  0
 16 17  2  0  0  0  0
 17 18  1  0  0  0  0
 18 19  2  0  0  0  0
 19 20  1  0  0  0  0
 19 14  1  0  0  0  0
 20 21  1  0  0  0  0
 21 22  1  0  0  0  0
 21 23  2  0  0  0  0
 24  6  1  0  0  0  0
M  END
>  <CHROM.1>
134.40440647,147.48422004,-19.20133181,30.62782928,143.42347524,61.78619164
42.30549019,-45.80955283,7.55696622,0.33974461,0.46846093,1.34663407

>  <Name>
design_9

>  <RI>
0

>  <Rbt.Current_Directory>
/home/ziqiaoxu/icml18-jtnn/VAEdesign

>  <Rbt.Executable>
rbdock ($Id: //depot/dev/client3/rdock/2013.1/src/exe/rbdock.cxx#4 $)

>  <Rbt.Library>
libRbt.so (2013.1, Build901 2013/11/27)

>  <Rbt.Parameter_File>
/export/apps/rDock/src/rDock_2013.1_src//data/scripts/dock.prm

>  <Rbt.Receptor>
/home/ziqiaoxu/icml18-jtnn/VAEdesign/targets/RdRp-SARS-CoV-2/pocket_docking.prm

>  <SCORE>
-27.7785

>  <SCORE.INTER>
-24.102

>  <SCORE.INTER.CONST>
1

>  <SCORE.INTER.POLAR>
-2.74143

>  <SCORE.INTER.REPUL>
0.016079

>  <SCORE.INTER.ROT>
6

>  <SCORE.INTER.VDW>
-26.2616

>  <SCORE.INTER.norm>
-1.00425

>  <SCORE.INTRA>
-3.67652

>  <SCORE.INTRA.DIHEDRAL>
-11.471

>  <SCORE.INTRA.DIHEDRAL.0>
23.1585

>  <SCORE.INTRA.POLAR>
0

>  <SCORE.INTRA.POLAR.0>
0

>  <SCORE.INTRA.REPUL>
0

>  <SCORE.INTRA.REPUL.0>
0

>  <SCORE.INTRA.VDW>
2.05898

>  <SCORE.INTRA.VDW.0>
-2.0694

>  <SCORE.INTRA.norm>
-0.153188

>  <SCORE.RESTR>
0

>  <SCORE.RESTR.CAVITY>
0

>  <SCORE.RESTR.norm>
0

>  <SCORE.SYSTEM>
0

>  <SCORE.SYSTEM.CONST>
0

>  <SCORE.SYSTEM.DIHEDRAL>
0

>  <SCORE.SYSTEM.norm>
0

>  <SCORE.heavy>
24

>  <SCORE.norm>
-1.15744

$$$$
design_7
 OpenBabel05252019093D

 26 28  0  0  0  0  0  0  0  0999 V2000
   38.0293  -42.0796    6.2983 C   0  0  0  0  0  0  0  0  0  0  0  0
   37.4412  -43.4307    6.1677 C   0  0  0  0  0  0  0  0  0  0  0  0
   36.2850  -43.6371    5.4298 C   0  0  0  0  0  0  0  0  0  0  0  0
   35.7535  -44.8993    5.3142 C   0  0  0  0  0  0  0  0  0  0  0  0
   36.3399  -45.9686    5.9143 C   0  0  0  0  0  0  0  0  0  0  0  0
   37.5102  -45.7951    6.6690 C   0  0  0  0  0  0  0  0  0  0  0  0
   38.0718  -46.9918    7.2783 C   0  0  0  0  0  0  0  0  0  0  0  0
   38.3256  -46.8024    8.7917 C   0  0  0  0  0  0  0  0  0  0  0  0
   37.3917  -47.2994    9.4655 O   0  0  0  0  0  0  0  0  0  0  0  0
   39.4161  -46.1860    9.1450 N   0  0  0  0  0  0  0  0  0  0  0  0
   40.5910  -45.5220    9.5258 C   0  0  0  0  0  0  0  0  0  0  0  0
   40.8998  -44.8601   10.6726 C   0  0  0  0  0  0  0  0  0  0  0  0
   42.1399  -44.2522   10.8778 C   0  0  0  0  0  0  0  0  0  0  0  0
   43.0776  -44.3373    9.8638 C   0  0  0  0  0  0  0  0  0  0  0  0
   42.8233  -44.9825    8.7040 C   0  0  0  0  0  0  0  0  0  0  0  0
   43.8322  -45.0381    7.6328 C   0  0  0  0  0  0  0  0  0  0  0  0
   43.5289  -45.6803    6.6083 O   0  0  0  0  0  0  0  0  0  0  0  0
   45.0479  -44.3832    7.8105 N   0  0  0  0  0  0  0  0  0  0  0  0
   46.1274  -44.2994    6.8982 C   0  0  0  0  0  0  0  0  0  0  0  0
   46.1613  -44.8328    5.6364 C   0  0  0  0  0  0  0  0  0  0  0  0
   47.2561  -44.7151    4.7788 C   0  0  0  0  0  0  0  0  0  0  0  0
   48.3677  -44.0358    5.1960 C   0  0  0  0  0  0  0  0  0  0  0  0
   48.3172  -43.5059    6.4666 C   0  0  0  0  0  0  0  0  0  0  0  0
   47.2682  -43.6256    7.2722 N   0  0  0  0  0  0  0  0  0  0  0  0
   41.6074  -45.5628    8.5378 C   0  0  0  0  0  0  0  0  0  0  0  0
   38.0134  -44.5165    6.7619 C   0  0  0  0  0  0  0  0  0  0  0  0
  1  2  1  0  0  0  0
  2  3  2  0  0  0  0
  3  4  1  0  0  0  0
  4  5  2  0  0  0  0
  5  6  1  0  0  0  0
  6  7  1  0  0  0  0
  6 26  2  0  0  0  0
  7  8  1  0  0  0  0
  8  9  2  0  0  0  0
  8 10  1  0  0  0  0
 10 11  1  0  0  0  0
 11 12  2  0  0  0  0
 12 13  1  0  0  0  0
 13 14  2  0  0  0  0
 14 15  1  0  0  0  0
 15 16  1  0  0  0  0
 15 25  2  0  0  0  0
 16 17  2  0  0  0  0
 16 18  1  0  0  0  0
 18 19  1  0  0  0  0
 19 20  2  0  0  0  0
 20 21  1  0  0  0  0
 21 22  2  0  0  0  0
 22 23  1  0  0  0  0
 23 24  2  0  0  0  0
 24 19  1  0  0  0  0
 25 11  1  0  0  0  0
 26  2  1  0  0  0  0
M  END
>  <CHROM.1>
-128.08275913,98.69000474,-33.17909143,178.33542185,1.61905906,41.51088979
-44.90578682,7.46502235,3.05355311,0.08455860,1.90036676

>  <Name>
design_7

>  <RI>
0

>  <Rbt.Current_Directory>
/home/ziqiaoxu/icml18-jtnn/VAEdesign

>  <Rbt.Executable>
rbdock ($Id: //depot/dev/client3/rdock/2013.1/src/exe/rbdock.cxx#4 $)

>  <Rbt.Library>
libRbt.so (2013.1, Build901 2013/11/27)

>  <Rbt.Parameter_File>
/export/apps/rDock/src/rDock_2013.1_src//data/scripts/dock.prm

>  <Rbt.Receptor>
/home/ziqiaoxu/icml18-jtnn/VAEdesign/targets/RdRp-SARS-CoV-2/pocket_docking.prm

>  <SCORE>
-20.9322

>  <SCORE.INTER>
-18.7743

>  <SCORE.INTER.CONST>
1

>  <SCORE.INTER.POLAR>
-0.857736

>  <SCORE.INTER.REPUL>
0

>  <SCORE.INTER.ROT>
5

>  <SCORE.INTER.VDW>
-26.258

>  <SCORE.INTER.norm>
-0.72209

>  <SCORE.INTRA>
-2.15875

>  <SCORE.INTRA.DIHEDRAL>
-3.7898

>  <SCORE.INTRA.DIHEDRAL.0>
8.39546

>  <SCORE.INTRA.POLAR>
0

>  <SCORE.INTRA.POLAR.0>
0

>  <SCORE.INTRA.REPUL>
0

>  <SCORE.INTRA.REPUL.0>
0

>  <SCORE.INTRA.VDW>
-0.263848

>  <SCORE.INTRA.VDW.0>
-0.0448045

>  <SCORE.INTRA.norm>
-0.0830288

>  <SCORE.RESTR>
0.000866192

>  <SCORE.RESTR.CAVITY>
0.000866192

>  <SCORE.RESTR.norm>
3.33151e-05

>  <SCORE.SYSTEM>
0

>  <SCORE.SYSTEM.CONST>
0

>  <SCORE.SYSTEM.DIHEDRAL>
0

>  <SCORE.SYSTEM.norm>
0

>  <SCORE.heavy>
26

>  <SCORE.norm>
-0.805085

$$$$
design_14
 OpenBabel05252019093D

 24 27  0  0  0  0  0  0  0  0999 V2000
   38.7872  -49.0273    6.4197 C   0  0  0  0  0  0  0  0  0  0  0  0
   39.3022  -48.0036    7.3671 C   0  0  0  0  0  0  0  0  0  0  0  0
   38.5240  -47.6469    8.4504 C   0  0  0  0  0  0  0  0  0  0  0  0
   39.0076  -46.6964    9.3258 C   0  0  0  0  0  0  0  0  0  0  0  0
   40.2609  -46.1123    9.1117 C   0  0  0  0  0  0  0  0  0  0  0  0
   41.0409  -46.4634    8.0344 C   0  0  0  0  0  0  0  0  0  0  0  0
   42.3606  -45.8398    7.8202 C   0  0  0  0  0  0  0  0  0  0  0  0
   43.1457  -45.9621    6.7344 N   0  0  0  0  0  0  0  0  0  0  0  0
   44.2767  -45.2554    6.8857 C   0  0  0  0  0  0  0  0  0  0  0  0
   45.3873  -45.0243    6.1348 N   0  0  0  0  0  0  0  0  0  0  0  0
   46.3773  -44.2413    6.5872 C   0  0  0  0  0  0  0  0  0  0  0  0
   47.5662  -44.0147    5.7428 C   0  0  0  0  0  0  0  0  0  0  0  0
   46.2401  -43.6748    7.8368 C   0  0  0  0  0  0  0  0  0  0  0  0
   45.1298  -43.8891    8.6195 C   0  0  0  0  0  0  0  0  0  0  0  0
   45.0268  -43.2597    9.9422 C   0  0  0  0  0  0  0  0  0  0  0  0
   44.9316  -44.2726   10.9750 N   0  0  0  0  0  0  0  0  0  0  0  0
   46.2091  -44.9191   11.2076 C   0  0  0  0  0  0  0  0  0  0  0  0
   46.6364  -44.6378   12.6533 C   0  0  0  0  0  0  0  0  0  0  0  0
   45.6820  -45.3123   13.4486 O   0  0  0  0  0  0  0  0  0  0  0  0
   44.4098  -44.8417   13.2333 C   0  0  0  0  0  0  0  0  0  0  0  0
   44.3292  -43.7715   12.1812 C   0  0  0  0  0  0  0  0  0  0  0  0
   44.1711  -44.6890    8.1007 N   0  0  0  0  0  0  0  0  0  0  0  0
   43.0256  -45.0341    8.6676 N   0  0  0  0  0  0  0  0  0  0  0  0
   40.5543  -47.4112    7.1650 C   0  0  0  0  0  0  0  0  0  0  0  0
  1  2  1  0  0  0  0
  2  3  2  0  0  0  0
  3  4  1  0  0  0  0
  4  5  2  0  0  0  0
  5  6  1  0  0  0  0
  6  7  1  0  0  0  0
  6 24  2  0  0  0  0
  7  8  1  0  0  0  0
  8  9  2  0  0  0  0
  9 10  1  0  0  0  0
 10 11  2  0  0  0  0
 11 12  1  0  0  0  0
 11 13  1  0  0  0  0
 13 14  2  0  0  0  0
 14 15  1  0  0  0  0
 14 22  1  0  0  0  0
 15 16  1  0  0  0  0
 16 17  1  0  0  0  0
 17 18  1  0  0  0  0
 18 19  1  0  0  0  0
 19 20  1  0  0  0  0
 20 21  1  0  0  0  0
 21 16  1  0  0  0  0
 22 23  1  0  0  0  0
 22  9  1  0  0  0  0
 23  7  2  0  0  0  0
 24  2  1  0  0  0  0
M  END
>  <CHROM.1>
-171.05258117,-118.99623507,74.30497471,43.49684086,-45.40173873,8.92754479
-2.72184491,0.45092936,1.51203795

>  <Name>
design_14

>  <RI>
0

>  <Rbt.Current_Directory>
/home/ziqiaoxu/icml18-jtnn/VAEdesign

>  <Rbt.Executable>
rbdock ($Id: //depot/dev/client3/rdock/2013.1/src/exe/rbdock.cxx#4 $)

>  <Rbt.Library>
libRbt.so (2013.1, Build901 2013/11/27)

>  <Rbt.Parameter_File>
/export/apps/rDock/src/rDock_2013.1_src//data/scripts/dock.prm

>  <Rbt.Receptor>
/home/ziqiaoxu/icml18-jtnn/VAEdesign/targets/RdRp-SARS-CoV-2/pocket_docking.prm

>  <SCORE>
-19.1927

>  <SCORE.INTER>
-17.8575

>  <SCORE.INTER.CONST>
1

>  <SCORE.INTER.POLAR>
0

>  <SCORE.INTER.REPUL>
0

>  <SCORE.INTER.ROT>
3

>  <SCORE.INTER.VDW>
-26.2575

>  <SCORE.INTER.norm>
-0.744064

>  <SCORE.INTRA>
-1.3352

>  <SCORE.INTRA.DIHEDRAL>
0.770385

>  <SCORE.INTRA.DIHEDRAL.0>
0.786435

>  <SCORE.INTRA.POLAR>
0

>  <SCORE.INTRA.POLAR.0>
0

>  <SCORE.INTRA.REPUL>
0.105695

>  <SCORE.INTRA.REPUL.0>
0

>  <SCORE.INTRA.VDW>
-2.24887

>  <SCORE.INTRA.VDW.0>
0.95136

>  <SCORE.INTRA.norm>
-0.0556335

>  <SCORE.RESTR>
0

>  <SCORE.RESTR.CAVITY>
0

>  <SCORE.RESTR.norm>
0

>  <SCORE.SYSTEM>
0

>  <SCORE.SYSTEM.CONST>
0

>  <SCORE.SYSTEM.DIHEDRAL>
0

>  <SCORE.SYSTEM.norm>
0

>  <SCORE.heavy>
24

>  <SCORE.norm>
-0.799697

$$$$
design_0
 OpenBabel05252019093D

 26 28  0  0  0  0  0  0  0  0999 V2000
   48.1601  -43.6735    6.1650 C   0  0  0  0  0  0  0  0  0  0  0  0
   46.9738  -43.8074    7.0023 N   0  0  0  0  0  0  0  0  0  0  0  0
   45.9003  -44.6037    6.5712 C   0  0  0  0  0  0  0  0  0  0  0  0
   45.9815  -45.1923    5.4607 O   0  0  0  0  0  0  0  0  0  0  0  0
   44.7011  -44.7529    7.3934 C   0  0  0  0  0  0  0  0  0  0  0  0
   44.6499  -44.1132    8.6403 C   0  0  0  0  0  0  0  0  0  0  0  0
   43.5660  -44.1956    9.4806 C   0  0  0  0  0  0  0  0  0  0  0  0
   42.4540  -44.9362    9.1120 C   0  0  0  0  0  0  0  0  0  0  0  0
   41.2599  -45.0474    9.9889 C   0  0  0  0  0  0  0  0  0  0  0  0
   40.2993  -46.0089    9.5660 N   0  0  0  0  0  0  0  0  0  0  0  0
   39.0981  -45.6750    8.8986 C   0  0  0  0  0  0  0  0  0  0  0  0
   38.8671  -44.4633    8.6677 O   0  0  0  0  0  0  0  0  0  0  0  0
   38.1049  -46.6718    8.4604 C   0  0  0  0  0  0  0  0  0  0  0  0
   37.9882  -46.7250    6.9502 C   0  0  0  0  0  0  0  0  0  0  0  0
   37.1507  -45.5955    6.4584 C   0  0  0  0  0  0  0  0  0  0  0  0
   37.3630  -44.2654    6.6319 N   0  0  0  0  0  0  0  0  0  0  0  0
   36.3736  -43.5809    6.0312 C   0  0  0  0  0  0  0  0  0  0  0  0
   36.1833  -42.1379    5.9557 C   0  0  0  0  0  0  0  0  0  0  0  0
   35.0895  -41.5085    5.4019 C   0  0  0  0  0  0  0  0  0  0  0  0
   35.2854  -40.1376    5.5245 C   0  0  0  0  0  0  0  0  0  0  0  0
   36.5188  -40.0242    6.1616 C   0  0  0  0  0  0  0  0  0  0  0  0
   36.9978  -41.2158    6.3898 O   0  0  0  0  0  0  0  0  0  0  0  0
   35.5736  -44.5226    5.5003 N   0  0  0  0  0  0  0  0  0  0  0  0
   36.0433  -45.6866    5.7601 O   0  0  0  0  0  0  0  0  0  0  0  0
   42.5028  -45.5628    7.8914 C   0  0  0  0  0  0  0  0  0  0  0  0
   43.5999  -45.4837    7.0329 C   0  0  0  0  0  0  0  0  0  0  0  0
  1  2  1  0  0  0  0
  2  3  1  0  0  0  0
  3  4  2  0  0  0  0
  3  5  1  0  0  0  0
  5  6  2  0  0  0  0
  6  7  1  0  0  0  0
  7  8  2  0  0  0  0
  8  9  1  0  0  0  0
  8 25  1  0  0  0  0
  9 10  1  0  0  0  0
 10 11  1  0  0  0  0
 11 12  2  0  0  0  0
 11 13  1  0  0  0  0
 13 14  1  0  0  0  0
 14 15  1  0  0  0  0
 15 16  2  0  0  0  0
 16 17  1  0  0  0  0
 17 18  1  0  0  0  0
 17 23  2  0  0  0  0
 18 19  2  0  0  0  0
 19 20  1  0  0  0  0
 20 21  2  0  0  0  0
 21 22  1  0  0  0  0
 22 18  1  0  0  0  0
 23 24  1  0  0  0  0
 24 15  1  0  0  0  0
 25 26  2  0  0  0  0
 26  5  1  0  0  0  0
M  END
>  <CHROM.1>
-1.55606432,-170.43288299,-101.82932704,-114.57761566,-79.12474557,58.68352346
-175.07036004,40.28314274,-44.23098066,7.18890506,-0.19673997,-0.02200560
-0.52674553

>  <Name>
design_0

>  <RI>
0

>  <Rbt.Current_Directory>
/home/ziqiaoxu/icml18-jtnn/VAEdesign

>  <Rbt.Executable>
rbdock ($Id: //depot/dev/client3/rdock/2013.1/src/exe/rbdock.cxx#4 $)

>  <Rbt.Library>
libRbt.so (2013.1, Build901 2013/11/27)

>  <Rbt.Parameter_File>
/export/apps/rDock/src/rDock_2013.1_src//data/scripts/dock.prm

>  <Rbt.Receptor>
/home/ziqiaoxu/icml18-jtnn/VAEdesign/targets/RdRp-SARS-CoV-2/pocket_docking.prm

>  <SCORE>
-15.5056

>  <SCORE.INTER>
-16.235

>  <SCORE.INTER.CONST>
1

>  <SCORE.INTER.POLAR>
-0.700272

>  <SCORE.INTER.REPUL>
0

>  <SCORE.INTER.ROT>
7

>  <SCORE.INTER.VDW>
-26.254

>  <SCORE.INTER.norm>
-0.624422

>  <SCORE.INTRA>
0.729404

>  <SCORE.INTRA.DIHEDRAL>
2.90925

>  <SCORE.INTRA.DIHEDRAL.0>
4.36693

>  <SCORE.INTRA.POLAR>
0

>  <SCORE.INTRA.POLAR.0>
0

>  <SCORE.INTRA.REPUL>
0.0103464

>  <SCORE.INTRA.REPUL.0>
0

>  <SCORE.INTRA.VDW>
-0.776955

>  <SCORE.INTRA.VDW.0>
-0.948796

>  <SCORE.INTRA.norm>
0.028054

>  <SCORE.RESTR>
0

>  <SCORE.RESTR.CAVITY>
0

>  <SCORE.RESTR.norm>
0

>  <SCORE.SYSTEM>
0

>  <SCORE.SYSTEM.CONST>
0

>  <SCORE.SYSTEM.DIHEDRAL>
0

>  <SCORE.SYSTEM.norm>
0

>  <SCORE.heavy>
26

>  <SCORE.norm>
-0.596368

$$$$
design_0
 OpenBabel05252019093D

 27 30  0  0  0  0  0  0  0  0999 V2000
   40.3325  -36.3854    3.8586 C   0  0  0  0  0  0  0  0  0  0  0  0
   40.8501  -37.5653    3.1039 C   0  0  0  0  0  0  0  0  0  0  0  0
   41.8361  -38.3306    3.6390 C   0  0  0  0  0  0  0  0  0  0  0  0
   42.2874  -39.4238    2.8949 C   0  0  0  0  0  0  0  0  0  0  0  0
   41.7779  -39.7419    1.6688 C   0  0  0  0  0  0  0  0  0  0  0  0
   42.2566  -40.8870    0.8878 C   0  0  0  0  0  0  0  0  0  0  0  0
   41.5604  -42.0782    1.3128 N   0  0  0  0  0  0  0  0  0  0  0  0
   42.2628  -43.2727    1.5622 C   0  0  0  0  0  0  0  0  0  0  0  0
   43.5034  -43.3034    1.4156 O   0  0  0  0  0  0  0  0  0  0  0  0
   41.5892  -44.5166    1.9978 C   0  0  0  0  0  0  0  0  0  0  0  0
   40.6988  -44.2000    3.2039 C   0  0  0  0  0  0  0  0  0  0  0  0
   41.0960  -45.4751    3.7648 N   0  0  0  0  0  0  0  0  0  0  0  0
   40.4960  -46.4114    4.6500 C   0  0  0  0  0  0  0  0  0  0  0  0
   41.1181  -47.4683    4.9589 O   0  0  0  0  0  0  0  0  0  0  0  0
   39.1729  -46.1598    5.2006 C   0  0  0  0  0  0  0  0  0  0  0  0
   38.1350  -45.7196    4.4056 C   0  0  0  0  0  0  0  0  0  0  0  0
   36.9050  -45.4982    4.9869 C   0  0  0  0  0  0  0  0  0  0  0  0
   36.7345  -45.7174    6.3364 C   0  0  0  0  0  0  0  0  0  0  0  0
   37.7688  -46.1625    7.1623 C   0  0  0  0  0  0  0  0  0  0  0  0
   37.5703  -46.3740    8.5100 C   0  0  0  0  0  0  0  0  0  0  0  0
   38.6402  -46.8143    9.2604 C   0  0  0  0  0  0  0  0  0  0  0  0
   39.8638  -47.0309    8.6630 C   0  0  0  0  0  0  0  0  0  0  0  0
   40.0539  -46.8178    7.3185 C   0  0  0  0  0  0  0  0  0  0  0  0
   38.9917  -46.3794    6.5669 C   0  0  0  0  0  0  0  0  0  0  0  0
   42.3318  -45.3405    3.0261 C   0  0  0  0  0  0  0  0  0  0  0  0
   40.7698  -38.9195    1.1750 C   0  0  0  0  0  0  0  0  0  0  0  0
   40.3016  -37.8430    1.8703 C   0  0  0  0  0  0  0  0  0  0  0  0
  1  2  1  0  0  0  0
  2  3  2  0  0  0  0
  3  4  1  0  0  0  0
  4  5  2  0  0  0  0
  5  6  1  0  0  0  0
  5 26  1  0  0  0  0
  6  7  1  0  0  0  0
  7  8  1  0  0  0  0
  8  9  2  0  0  0  0
  8 10  1  0  0  0  0
 10 11  1  0  0  0  0
 11 12  1  0  0  0  0
 12 13  1  0  0  0  0
 12 25  1  0  0  0  0
 13 14  2  0  0  0  0
 13 15  1  0  0  0  0
 15 16  2  0  0  0  0
 16 17  1  0  0  0  0
 17 18  2  0  0  0  0
 18 19  1  0  0  0  0
 19 20  2  0  0  0  0
 20 21  1  0  0  0  0
 21 22  2  0  0  0  0
 22 23  1  0  0  0  0
 23 24  2  0  0  0  0
 24 15  1  0  0  0  0
 24 19  1  0  0  0  0
 25 10  1  0  0  0  0
 26 27  2  0  0  0  0
 27  2  1  0  0  0  0
M  END
>  <CHROM.1>
84.95236893,-133.87322306,-51.26246927,45.60873975,40.38364966,-43.46102544
4.14744796,1.10236338,0.88523138,-0.18904159

>  <Name>
design_0

>  <RI>
0

>  <Rbt.Current_Directory>
/home/ziqiaoxu/icml18-jtnn/VAEdesign

>  <Rbt.Executable>
rbdock ($Id: //depot/dev/client3/rdock/2013.1/src/exe/rbdock.cxx#4 $)

>  <Rbt.Library>
libRbt.so (2013.1, Build901 2013/11/27)

>  <Rbt.Parameter_File>
/export/apps/rDock/src/rDock_2013.1_src//data/scripts/dock.prm

>  <Rbt.Receptor>
/home/ziqiaoxu/icml18-jtnn/VAEdesign/targets/RdRp-SARS-CoV-2/pocket_docking.prm

>  <SCORE>
-21.9954

>  <SCORE.INTER>
-20.6989

>  <SCORE.INTER.CONST>
1

>  <SCORE.INTER.POLAR>
-1.14564

>  <SCORE.INTER.REPUL>
0.00882156

>  <SCORE.INTER.ROT>
4

>  <SCORE.INTER.VDW>
-26.2478

>  <SCORE.INTER.norm>
-0.766625

>  <SCORE.INTRA>
-1.29649

>  <SCORE.INTRA.DIHEDRAL>
-5.79553

>  <SCORE.INTRA.DIHEDRAL.0>
16.071

>  <SCORE.INTRA.POLAR>
0

>  <SCORE.INTRA.POLAR.0>
0

>  <SCORE.INTRA.REPUL>
0

>  <SCORE.INTRA.REPUL.0>
0

>  <SCORE.INTRA.VDW>
1.60127

>  <SCORE.INTRA.VDW.0>
-2.49249

>  <SCORE.INTRA.norm>
-0.0480182

>  <SCORE.RESTR>
0

>  <SCORE.RESTR.CAVITY>
0

>  <SCORE.RESTR.norm>
0

>  <SCORE.SYSTEM>
0

>  <SCORE.SYSTEM.CONST>
0

>  <SCORE.SYSTEM.DIHEDRAL>
0

>  <SCORE.SYSTEM.norm>
0

>  <SCORE.heavy>
27

>  <SCORE.norm>
-0.814644

$$$$
design_19
 OpenBabel05252019093D

 22 24  0  0  0  0  0  0  0  0999 V2000
   48.1043  -48.0768    0.0429 C   0  0  0  0  0  0  0  0  0  0  0  0
   47.5276  -47.2487    1.0275 O   0  0  0  0  0  0  0  0  0  0  0  0
   46.2457  -46.7519    0.7728 C   0  0  0  0  0  0  0  0  0  0  0  0
   45.6486  -46.8698   -0.4154 N   0  0  0  0  0  0  0  0  0  0  0  0
   44.4174  -46.4017   -0.6874 C   0  0  0  0  0  0  0  0  0  0  0  0
   43.7199  -45.7598    0.3134 C   0  0  0  0  0  0  0  0  0  0  0  0
   44.2700  -45.5940    1.5845 C   0  0  0  0  0  0  0  0  0  0  0  0
   45.5332  -46.0977    1.7895 C   0  0  0  0  0  0  0  0  0  0  0  0
   46.2072  -46.0058    3.0905 C   0  0  0  0  0  0  0  0  0  0  0  0
   45.3903  -45.8315    4.2379 N   0  0  0  0  0  0  0  0  0  0  0  0
   45.7689  -45.2061    5.4357 C   0  0  0  0  0  0  0  0  0  0  0  0
   46.9199  -44.7472    5.5651 O   0  0  0  0  0  0  0  0  0  0  0  0
   44.8348  -45.0655    6.5807 C   0  0  0  0  0  0  0  0  0  0  0  0
   45.1194  -44.2509    7.6524 C   0  0  0  0  0  0  0  0  0  0  0  0
   43.7290  -44.4794    8.6355 S   0  0  0  0  0  0  0  0  0  0  0  0
   42.8982  -45.5724    7.6374 C   0  0  0  0  0  0  0  0  0  0  0  0
   41.5886  -46.2110    7.8633 C   0  0  0  0  0  0  0  0  0  0  0  0
   40.9417  -47.1132    7.0658 C   0  0  0  0  0  0  0  0  0  0  0  0
   39.7461  -47.5584    7.4867 C   0  0  0  0  0  0  0  0  0  0  0  0
   39.2778  -47.0694    8.6803 C   0  0  0  0  0  0  0  0  0  0  0  0
   40.5165  -46.0100    9.1715 S   0  0  0  0  0  0  0  0  0  0  0  0
   43.7033  -45.7123    6.6169 N   0  0  0  0  0  0  0  0  0  0  0  0
  1  2  1  0  0  0  0
  2  3  1  0  0  0  0
  3  4  2  0  0  0  0
  4  5  1  0  0  0  0
  5  6  2  0  0  0  0
  6  7  1  0  0  0  0
  7  8  2  0  0  0  0
  8  9  1  0  0  0  0
  8  3  1  0  0  0  0
  9 10  1  0  0  0  0
 10 11  1  0  0  0  0
 11 12  2  0  0  0  0
 11 13  1  0  0  0  0
 13 14  2  0  0  0  0
 14 15  1  0  0  0  0
 15 16  1  0  0  0  0
 16 17  1  0  0  0  0
 16 22  2  0  0  0  0
 17 18  2  0  0  0  0
 18 19  1  0  0  0  0
 19 20  2  0  0  0  0
 20 21  1  0  0  0  0
 21 17  1  0  0  0  0
 22 13  1  0  0  0  0
M  END
>  <CHROM.1>
-9.84553442,-156.81359896,-152.64762397,-168.10115739,-178.42024160,44.03599562
-45.99517500,4.97865323,-0.99452944,0.32080041,1.27405901

>  <Name>
design_19

>  <RI>
0

>  <Rbt.Current_Directory>
/home/ziqiaoxu/icml18-jtnn/VAEdesign

>  <Rbt.Executable>
rbdock ($Id: //depot/dev/client3/rdock/2013.1/src/exe/rbdock.cxx#4 $)

>  <Rbt.Library>
libRbt.so (2013.1, Build901 2013/11/27)

>  <Rbt.Parameter_File>
/export/apps/rDock/src/rDock_2013.1_src//data/scripts/dock.prm

>  <Rbt.Receptor>
/home/ziqiaoxu/icml18-jtnn/VAEdesign/targets/RdRp-SARS-CoV-2/pocket_docking.prm

>  <SCORE>
-15.3182

>  <SCORE.INTER>
-15.8446

>  <SCORE.INTER.CONST>
1

>  <SCORE.INTER.POLAR>
-0.00137274

>  <SCORE.INTER.REPUL>
0

>  <SCORE.INTER.ROT>
5

>  <SCORE.INTER.VDW>
-26.2399

>  <SCORE.INTER.norm>
-0.720207

>  <SCORE.INTRA>
0.526338

>  <SCORE.INTRA.DIHEDRAL>
0.616161

>  <SCORE.INTRA.DIHEDRAL.0>
1.92258

>  <SCORE.INTRA.POLAR>
0

>  <SCORE.INTRA.POLAR.0>
0

>  <SCORE.INTRA.REPUL>
0

>  <SCORE.INTRA.REPUL.0>
0

>  <SCORE.INTRA.VDW>
0.218257

>  <SCORE.INTRA.VDW.0>
-1.07734

>  <SCORE.INTRA.norm>
0.0239244

>  <SCORE.RESTR>
0

>  <SCORE.RESTR.CAVITY>
0

>  <SCORE.RESTR.norm>
0

>  <SCORE.SYSTEM>
0

>  <SCORE.SYSTEM.CONST>
0

>  <SCORE.SYSTEM.DIHEDRAL>
0

>  <SCORE.SYSTEM.norm>
0

>  <SCORE.heavy>
22

>  <SCORE.norm>
-0.696283

$$$$
design_5
 OpenBabel05252019093D

 27 29  0  0  0  0  0  0  0  0999 V2000
   45.3486  -42.4858    0.3954 C   0  0  0  0  0  0  0  0  0  0  0  0
   44.7842  -43.8158    0.3443 C   0  0  0  0  0  0  0  0  0  0  0  0
   45.4635  -44.7956   -0.4066 C   0  0  0  0  0  0  0  0  0  0  0  0
   45.0333  -46.0792   -0.5709 C   0  0  0  0  0  0  0  0  0  0  0  0
   43.8657  -46.4518    0.0279 C   0  0  0  0  0  0  0  0  0  0  0  0
   43.1885  -45.5033    0.7670 C   0  0  0  0  0  0  0  0  0  0  0  0
   43.6057  -44.1756    0.9576 C   0  0  0  0  0  0  0  0  0  0  0  0
   42.7904  -43.2521    1.7512 C   0  0  0  0  0  0  0  0  0  0  0  0
   41.4801  -43.8824    2.1348 C   0  0  0  0  0  0  0  0  0  0  0  0
   41.1921  -44.9223    2.9723 N   0  0  0  0  0  0  0  0  0  0  0  0
   40.8687  -45.1125    4.3179 C   0  0  0  0  0  0  0  0  0  0  0  0
   40.7421  -44.2198    5.1621 O   0  0  0  0  0  0  0  0  0  0  0  0
   40.6586  -46.4414    4.7963 N   0  0  0  0  0  0  0  0  0  0  0  0
   40.3048  -46.8070    6.1062 C   0  0  0  0  0  0  0  0  0  0  0  0
   39.4748  -47.8503    6.3793 C   0  0  0  0  0  0  0  0  0  0  0  0
   39.1357  -48.1402    7.7074 C   0  0  0  0  0  0  0  0  0  0  0  0
   39.6355  -47.3798    8.7374 C   0  0  0  0  0  0  0  0  0  0  0  0
   40.4775  -46.3250    8.4449 C   0  0  0  0  0  0  0  0  0  0  0  0
   41.0385  -45.4818    9.5167 C   0  0  0  0  0  0  0  0  0  0  0  0
   40.5091  -45.6152   10.8140 N   0  0  0  0  0  0  0  0  0  0  0  0
   41.9626  -44.6637    9.2924 O   0  0  0  0  0  0  0  0  0  0  0  0
   40.8156  -46.0303    7.1626 C   0  0  0  0  0  0  0  0  0  0  0  0
   43.4601  -42.7512    2.9706 C   0  0  0  0  0  0  0  0  0  0  0  0
   42.6638  -41.5952    3.6142 C   0  0  0  0  0  0  0  0  0  0  0  0
   42.8158  -40.5529    2.7256 O   0  0  0  0  0  0  0  0  0  0  0  0
   42.1049  -40.7931    1.5916 C   0  0  0  0  0  0  0  0  0  0  0  0
   42.2888  -42.0616    0.8772 C   0  0  0  0  0  0  0  0  0  0  0  0
  1  2  1  0  0  0  0
  2  3  2  0  0  0  0
  3  4  1  0  0  0  0
  4  5  2  0  0  0  0
  5  6  1  0  0  0  0
  6  7  2  0  0  0  0
  7  8  1  0  0  0  0
  7  2  1  0  0  0  0
  8  9  1  0  0  0  0
  8 23  1  0  0  0  0
  9 10  1  0  0  0  0
 10 11  1  0  0  0  0
 11 12  2  0  0  0  0
 11 13  1  0  0  0  0
 13 14  1  0  0  0  0
 14 15  2  0  0  0  0
 15 16  1  0  0  0  0
 16 17  2  0  0  0  0
 17 18  1  0  0  0  0
 18 19  1  0  0  0  0
 18 22  2  0  0  0  0
 19 20  1  0  0  0  0
 19 21  2  0  0  0  0
 22 14  1  0  0  0  0
 23 24  1  0  0  0  0
 24 25  1  0  0  0  0
 25 26  1  0  0  0  0
 26 27  1  0  0  0  0
 27  8  1  0  0  0  0
M  END
>  <CHROM.1>
172.40295912,67.64645738,91.67549957,144.28236999,-11.54804919,42.05600052
-44.64379045,4.06349466,-0.01966603,1.16590355,0.37729201

>  <Name>
design_5

>  <RI>
0

>  <Rbt.Current_Directory>
/home/ziqiaoxu/icml18-jtnn/VAEdesign

>  <Rbt.Executable>
rbdock ($Id: //depot/dev/client3/rdock/2013.1/src/exe/rbdock.cxx#4 $)

>  <Rbt.Library>
libRbt.so (2013.1, Build901 2013/11/27)

>  <Rbt.Parameter_File>
/export/apps/rDock/src/rDock_2013.1_src//data/scripts/dock.prm

>  <Rbt.Receptor>
/home/ziqiaoxu/icml18-jtnn/VAEdesign/targets/RdRp-SARS-CoV-2/pocket_docking.prm

>  <SCORE>
-22.9537

>  <SCORE.INTER>
-23.845

>  <SCORE.INTER.CONST>
1

>  <SCORE.INTER.POLAR>
-2.36681

>  <SCORE.INTER.REPUL>
0.00839981

>  <SCORE.INTER.ROT>
5

>  <SCORE.INTER.VDW>
-26.2399

>  <SCORE.INTER.norm>
-0.883149

>  <SCORE.INTRA>
0.891292

>  <SCORE.INTRA.DIHEDRAL>
1.72868

>  <SCORE.INTRA.DIHEDRAL.0>
5.09339

>  <SCORE.INTRA.POLAR>
0

>  <SCORE.INTRA.POLAR.0>
0

>  <SCORE.INTRA.REPUL>
0

>  <SCORE.INTRA.REPUL.0>
0

>  <SCORE.INTRA.VDW>
0.0269508

>  <SCORE.INTRA.VDW.0>
1.73662

>  <SCORE.INTRA.norm>
0.0330108

>  <SCORE.RESTR>
0

>  <SCORE.RESTR.CAVITY>
0

>  <SCORE.RESTR.norm>
0

>  <SCORE.SYSTEM>
0

>  <SCORE.SYSTEM.CONST>
0

>  <SCORE.SYSTEM.DIHEDRAL>
0

>  <SCORE.SYSTEM.norm>
0

>  <SCORE.heavy>
27

>  <SCORE.norm>
-0.850138

$$$$
design_6
 OpenBabel05252019093D

 23 25  0  0  0  0  0  0  0  0999 V2000
   46.0063  -43.4505    7.7963 C   0  0  0  0  0  0  0  0  0  0  0  0
   44.8416  -44.3010    7.5657 C   0  0  0  0  0  0  0  0  0  0  0  0
   44.5860  -45.0112    6.4466 N   0  0  0  0  0  0  0  0  0  0  0  0
   43.4793  -45.6792    6.5591 N   0  0  0  0  0  0  0  0  0  0  0  0
   42.9649  -45.4227    7.7799 C   0  0  0  0  0  0  0  0  0  0  0  0
   41.6871  -45.9640    8.2377 C   0  0  0  0  0  0  0  0  0  0  0  0
   41.1370  -45.4779    9.4126 C   0  0  0  0  0  0  0  0  0  0  0  0
   39.9041  -45.9129    9.8567 C   0  0  0  0  0  0  0  0  0  0  0  0
   39.2368  -46.8637    9.0644 C   0  0  0  0  0  0  0  0  0  0  0  0
   39.7557  -47.3558    7.8971 C   0  0  0  0  0  0  0  0  0  0  0  0
   38.9269  -48.2744    6.9959 C   0  0  0  0  0  0  0  0  0  0  0  0
   37.9828  -47.4452    6.3014 N   0  0  0  0  0  0  0  0  0  0  0  0
   37.1020  -46.6891    5.6322 C   0  0  0  0  0  0  0  0  0  0  0  0
   36.6526  -46.8782    4.4718 O   0  0  0  0  0  0  0  0  0  0  0  0
   36.5212  -45.4251    6.2863 C   0  0  0  0  0  0  0  0  0  0  0  0
   36.4313  -44.2513    5.3885 C   0  0  0  0  0  0  0  0  0  0  0  0
   36.0387  -42.9606    5.9304 N   0  0  0  0  0  0  0  0  0  0  0  0
   36.9643  -42.0469    6.3753 C   0  0  0  0  0  0  0  0  0  0  0  0
   36.2783  -41.0084    6.8277 N   0  0  0  0  0  0  0  0  0  0  0  0
   34.9637  -41.2168    6.6920 C   0  0  0  0  0  0  0  0  0  0  0  0
   34.8652  -42.4327    6.1322 N   0  0  0  0  0  0  0  0  0  0  0  0
   40.9901  -46.9053    7.4807 C   0  0  0  0  0  0  0  0  0  0  0  0
   43.8138  -44.5555    8.4310 N   0  0  0  0  0  0  0  0  0  0  0  0
  1  2  1  0  0  0  0
  2  3  2  0  0  0  0
  3  4  1  0  0  0  0
  4  5  1  0  0  0  0
  5  6  1  0  0  0  0
  5 23  2  0  0  0  0
  6  7  2  0  0  0  0
  7  8  1  0  0  0  0
  8  9  2  0  0  0  0
  9 10  1  0  0  0  0
 10 11  1  0  0  0  0
 10 22  2  0  0  0  0
 11 12  1  0  0  0  0
 12 13  1  0  0  0  0
 13 14  2  0  0  0  0
 13 15  1  0  0  0  0
 15 16  1  0  0  0  0
 16 17  1  0  0  0  0
 17 18  1  0  0  0  0
 18 19  2  0  0  0  0
 19 20  1  0  0  0  0
 20 21  2  0  0  0  0
 21 17  1  0  0  0  0
 22  6  1  0  0  0  0
 23  2  1  0  0  0  0
M  END
>  <CHROM.1>
-169.66331780,76.23678310,150.89820695,137.64524831,-173.19721592,92.21107834
39.58324447,-45.02057994,7.05682663,-0.19031448,-0.21448264,-0.00188183

>  <Name>
design_6

>  <RI>
0

>  <Rbt.Current_Directory>
/home/ziqiaoxu/icml18-jtnn/VAEdesign

>  <Rbt.Executable>
rbdock ($Id: //depot/dev/client3/rdock/2013.1/src/exe/rbdock.cxx#4 $)

>  <Rbt.Library>
libRbt.so (2013.1, Build901 2013/11/27)

>  <Rbt.Parameter_File>
/export/apps/rDock/src/rDock_2013.1_src//data/scripts/dock.prm

>  <Rbt.Receptor>
/home/ziqiaoxu/icml18-jtnn/VAEdesign/targets/RdRp-SARS-CoV-2/pocket_docking.prm

>  <SCORE>
-18.5324

>  <SCORE.INTER>
-17.7278

>  <SCORE.INTER.CONST>
1

>  <SCORE.INTER.POLAR>
-0.849574

>  <SCORE.INTER.REPUL>
0

>  <SCORE.INTER.ROT>
6

>  <SCORE.INTER.VDW>
-26.2392

>  <SCORE.INTER.norm>
-0.770772

>  <SCORE.INTRA>
-0.804648

>  <SCORE.INTRA.DIHEDRAL>
-0.362859

>  <SCORE.INTRA.DIHEDRAL.0>
7.60923

>  <SCORE.INTRA.POLAR>
0

>  <SCORE.INTRA.POLAR.0>
0

>  <SCORE.INTRA.REPUL>
-0.000130996

>  <SCORE.INTRA.REPUL.0>
0.000130996

>  <SCORE.INTRA.VDW>
-0.622564

>  <SCORE.INTRA.VDW.0>
-0.719895

>  <SCORE.INTRA.norm>
-0.0349847

>  <SCORE.RESTR>
0

>  <SCORE.RESTR.CAVITY>
0

>  <SCORE.RESTR.norm>
0

>  <SCORE.SYSTEM>
0

>  <SCORE.SYSTEM.CONST>
0

>  <SCORE.SYSTEM.DIHEDRAL>
0

>  <SCORE.SYSTEM.norm>
0

>  <SCORE.heavy>
23

>  <SCORE.norm>
-0.805757

$$$$
design_6
 OpenBabel05252019093D

 20 21  0  0  0  0  0  0  0  0999 V2000
   41.3083  -44.5646   10.7419 C   0  0  0  0  0  0  0  0  0  0  0  0
   40.9031  -45.4442    9.6213 C   0  0  0  0  0  0  0  0  0  0  0  0
   41.6117  -45.5562    8.4634 C   0  0  0  0  0  0  0  0  0  0  0  0
   41.1718  -46.3932    7.4694 C   0  0  0  0  0  0  0  0  0  0  0  0
   40.0177  -47.1464    7.5880 C   0  0  0  0  0  0  0  0  0  0  0  0
   39.5077  -48.2051    6.2690 S   0  0  0  0  0  0  0  0  0  0  0  0
   40.4908  -47.9898    5.1550 O   0  0  0  0  0  0  0  0  0  0  0  0
   39.5349  -49.6446    6.7297 O   0  0  0  0  0  0  0  0  0  0  0  0
   37.9406  -47.7374    5.7436 N   0  0  0  0  0  0  0  0  0  0  0  0
   37.4764  -46.3909    5.8235 C   0  0  0  0  0  0  0  0  0  0  0  0
   36.1607  -46.0554    5.5358 C   0  0  0  0  0  0  0  0  0  0  0  0
   35.7037  -44.7621    5.6087 C   0  0  0  0  0  0  0  0  0  0  0  0
   36.5599  -43.7475    5.9771 C   0  0  0  0  0  0  0  0  0  0  0  0
   36.1094  -42.3513    6.0668 C   0  0  0  0  0  0  0  0  0  0  0  0
   34.7265  -42.0445    6.1157 N   0  0  0  0  0  0  0  0  0  0  0  0
   36.9273  -41.4137    6.1014 O   0  0  0  0  0  0  0  0  0  0  0  0
   37.8726  -44.0503    6.2689 C   0  0  0  0  0  0  0  0  0  0  0  0
   38.3203  -45.3648    6.1904 C   0  0  0  0  0  0  0  0  0  0  0  0
   39.2937  -47.0405    8.7552 C   0  0  0  0  0  0  0  0  0  0  0  0
   39.7456  -46.1878    9.7625 C   0  0  0  0  0  0  0  0  0  0  0  0
  1  2  1  0  0  0  0
  2  3  2  0  0  0  0
  3  4  1  0  0  0  0
  4  5  2  0  0  0  0
  5  6  1  0  0  0  0
  5 19  1  0  0  0  0
  6  7  2  0  0  0  0
  6  8  2  0  0  0  0
  6  9  1  0  0  0  0
  9 10  1  0  0  0  0
 10 11  2  0  0  0  0
 11 12  1  0  0  0  0
 12 13  2  0  0  0  0
 13 14  1  0  0  0  0
 13 17  1  0  0  0  0
 14 15  1  0  0  0  0
 14 16  2  0  0  0  0
 17 18  2  0  0  0  0
 18 10  1  0  0  0  0
 19 20  2  0  0  0  0
 20  2  1  0  0  0  0
M  END
>  <CHROM.1>
-3.27736881,30.03065391,-172.67249660,16.32443405,38.61898270,-45.78072223
6.92719567,-0.50497220,-0.69699763,0.49607128

>  <Name>
design_6

>  <RI>
0

>  <Rbt.Current_Directory>
/home/ziqiaoxu/icml18-jtnn/VAEdesign

>  <Rbt.Executable>
rbdock ($Id: //depot/dev/client3/rdock/2013.1/src/exe/rbdock.cxx#4 $)

>  <Rbt.Library>
libRbt.so (2013.1, Build901 2013/11/27)

>  <Rbt.Parameter_File>
/export/apps/rDock/src/rDock_2013.1_src//data/scripts/dock.prm

>  <Rbt.Receptor>
/home/ziqiaoxu/icml18-jtnn/VAEdesign/targets/RdRp-SARS-CoV-2/pocket_docking.prm

>  <SCORE>
-22.1472

>  <SCORE.INTER>
-20.0797

>  <SCORE.INTER.CONST>
1

>  <SCORE.INTER.POLAR>
-0.953717

>  <SCORE.INTER.REPUL>
0

>  <SCORE.INTER.ROT>
4

>  <SCORE.INTER.VDW>
-26.2371

>  <SCORE.INTER.norm>
-1.00399

>  <SCORE.INTRA>
-2.06753

>  <SCORE.INTRA.DIHEDRAL>
-5.25491

>  <SCORE.INTRA.DIHEDRAL.0>
8.87589

>  <SCORE.INTRA.POLAR>
0

>  <SCORE.INTRA.POLAR.0>
0

>  <SCORE.INTRA.REPUL>
0

>  <SCORE.INTRA.REPUL.0>
0

>  <SCORE.INTRA.VDW>
0.559924

>  <SCORE.INTRA.VDW.0>
-2.36094

>  <SCORE.INTRA.norm>
-0.103377

>  <SCORE.RESTR>
0

>  <SCORE.RESTR.CAVITY>
0

>  <SCORE.RESTR.norm>
0

>  <SCORE.SYSTEM>
0

>  <SCORE.SYSTEM.CONST>
0

>  <SCORE.SYSTEM.DIHEDRAL>
0

>  <SCORE.SYSTEM.norm>
0

>  <SCORE.heavy>
20

>  <SCORE.norm>
-1.10736

$$$$
design_4
 OpenBabel05252019093D

 23 24  0  0  0  0  0  0  0  0999 V2000
   40.2011  -36.3777    2.6821 C   0  0  0  0  0  0  0  0  0  0  0  0
   39.9349  -37.5068    3.6392 C   0  0  0  0  0  0  0  0  0  0  0  0
   39.3717  -38.5006    3.1506 O   0  0  0  0  0  0  0  0  0  0  0  0
   40.3257  -37.3729    4.9789 N   0  0  0  0  0  0  0  0  0  0  0  0
   40.1846  -38.2742    6.0476 C   0  0  0  0  0  0  0  0  0  0  0  0
   39.7286  -39.5626    5.7547 C   0  0  0  0  0  0  0  0  0  0  0  0
   39.5936  -40.4730    6.8092 C   0  0  0  0  0  0  0  0  0  0  0  0
   39.8854  -40.1523    8.0888 C   0  0  0  0  0  0  0  0  0  0  0  0
   39.7425  -41.0236    9.1696 N   0  0  0  0  0  0  0  0  0  0  0  0
   39.7605  -42.4300    9.1178 C   0  0  0  0  0  0  0  0  0  0  0  0
   39.9064  -43.0333    8.0432 O   0  0  0  0  0  0  0  0  0  0  0  0
   39.5975  -43.2121   10.4058 C   0  0  0  0  0  0  0  0  0  0  0  0
   40.6100  -44.2885   10.4220 C   0  0  0  0  0  0  0  0  0  0  0  0
   40.3616  -45.3888    9.4658 C   0  0  0  0  0  0  0  0  0  0  0  0
   39.2464  -46.1734    9.4860 C   0  0  0  0  0  0  0  0  0  0  0  0
   39.0781  -47.1782    8.5672 C   0  0  0  0  0  0  0  0  0  0  0  0
   40.0121  -47.4443    7.5901 C   0  0  0  0  0  0  0  0  0  0  0  0
   39.7599  -48.5473    6.6313 C   0  0  0  0  0  0  0  0  0  0  0  0
   41.1357  -46.6492    7.5746 C   0  0  0  0  0  0  0  0  0  0  0  0
   41.3165  -45.6238    8.5054 C   0  0  0  0  0  0  0  0  0  0  0  0
   42.5823  -44.8337    8.3811 C   0  0  0  0  0  0  0  0  0  0  0  0
   40.3349  -38.8611    8.3282 C   0  0  0  0  0  0  0  0  0  0  0  0
   40.4880  -37.9235    7.3325 C   0  0  0  0  0  0  0  0  0  0  0  0
  1  2  1  0  0  0  0
  2  3  2  0  0  0  0
  2  4  1  0  0  0  0
  4  5  1  0  0  0  0
  5  6  2  0  0  0  0
  6  7  1  0  0  0  0
  7  8  2  0  0  0  0
  8  9  1  0  0  0  0
  8 22  1  0  0  0  0
  9 10  1  0  0  0  0
 10 11  2  0  0  0  0
 10 12  1  0  0  0  0
 12 13  1  0  0  0  0
 13 14  1  0  0  0  0
 14 15  2  0  0  0  0
 15 16  1  0  0  0  0
 16 17  2  0  0  0  0
 17 18  1  0  0  0  0
 17 19  1  0  0  0  0
 19 20  2  0  0  0  0
 20 21  1  0  0  0  0
 20 14  1  0  0  0  0
 22 23  2  0  0  0  0
 23  5  1  0  0  0  0
M  END
>  <CHROM.1>
8.07269787,24.71526835,-134.74206506,-71.17936560,-60.24531816,40.13954518
-42.16502735,7.35225229,2.34293117,-1.53644058,0.35793825

>  <Name>
design_4

>  <RI>
0

>  <Rbt.Current_Directory>
/home/ziqiaoxu/icml18-jtnn/VAEdesign

>  <Rbt.Executable>
rbdock ($Id: //depot/dev/client3/rdock/2013.1/src/exe/rbdock.cxx#4 $)

>  <Rbt.Library>
libRbt.so (2013.1, Build901 2013/11/27)

>  <Rbt.Parameter_File>
/export/apps/rDock/src/rDock_2013.1_src//data/scripts/dock.prm

>  <Rbt.Receptor>
/home/ziqiaoxu/icml18-jtnn/VAEdesign/targets/RdRp-SARS-CoV-2/pocket_docking.prm

>  <SCORE>
-18.9857

>  <SCORE.INTER>
-18.5045

>  <SCORE.INTER.CONST>
1

>  <SCORE.INTER.POLAR>
-0.785197

>  <SCORE.INTER.REPUL>
0

>  <SCORE.INTER.ROT>
5

>  <SCORE.INTER.VDW>
-26.2348

>  <SCORE.INTER.norm>
-0.804542

>  <SCORE.INTRA>
-0.481251

>  <SCORE.INTRA.DIHEDRAL>
2.49642

>  <SCORE.INTRA.DIHEDRAL.0>
3.55643

>  <SCORE.INTRA.POLAR>
0

>  <SCORE.INTRA.POLAR.0>
0

>  <SCORE.INTRA.REPUL>
0

>  <SCORE.INTRA.REPUL.0>
0

>  <SCORE.INTRA.VDW>
-1.72946

>  <SCORE.INTRA.VDW.0>
1.07882

>  <SCORE.INTRA.norm>
-0.020924

>  <SCORE.RESTR>
0

>  <SCORE.RESTR.CAVITY>
0

>  <SCORE.RESTR.norm>
0

>  <SCORE.SYSTEM>
0

>  <SCORE.SYSTEM.CONST>
0

>  <SCORE.SYSTEM.DIHEDRAL>
0

>  <SCORE.SYSTEM.norm>
0

>  <SCORE.heavy>
23

>  <SCORE.norm>
-0.825466

$$$$
design_4
 OpenBabel05252019093D

 25 27  0  0  0  0  0  0  0  0999 V2000
   40.1056  -36.2219    1.5446 C   0  0  0  0  0  0  0  0  0  0  0  0
   40.0347  -36.9135    2.8688 C   0  0  0  0  0  0  0  0  0  0  0  0
   39.8842  -38.2740    2.9417 C   0  0  0  0  0  0  0  0  0  0  0  0
   39.8170  -38.9223    4.1725 C   0  0  0  0  0  0  0  0  0  0  0  0
   39.9002  -38.2121    5.3493 C   0  0  0  0  0  0  0  0  0  0  0  0
   39.8299  -38.8889    6.6377 C   0  0  0  0  0  0  0  0  0  0  0  0
   40.1530  -38.3338    7.8119 N   0  0  0  0  0  0  0  0  0  0  0  0
   39.9684  -39.2359    8.7657 N   0  0  0  0  0  0  0  0  0  0  0  0
   39.5272  -40.3736    8.2170 C   0  0  0  0  0  0  0  0  0  0  0  0
   39.2022  -41.6294    8.9774 C   0  0  0  0  0  0  0  0  0  0  0  0
   40.2212  -41.9624    9.8038 O   0  0  0  0  0  0  0  0  0  0  0  0
   40.2175  -43.1504   10.4429 C   0  0  0  0  0  0  0  0  0  0  0  0
   40.3913  -44.3780    9.6901 C   0  0  0  0  0  0  0  0  0  0  0  0
   41.2938  -44.4129    8.8151 O   0  0  0  0  0  0  0  0  0  0  0  0
   39.6030  -45.5300    9.8836 N   0  0  0  0  0  0  0  0  0  0  0  0
   39.8312  -46.7484    9.0902 C   0  0  0  0  0  0  0  0  0  0  0  0
   38.9046  -46.7120    7.9297 C   0  0  0  0  0  0  0  0  0  0  0  0
   38.0833  -45.6467    7.6430 C   0  0  0  0  0  0  0  0  0  0  0  0
   37.2299  -45.6596    6.5487 C   0  0  0  0  0  0  0  0  0  0  0  0
   37.1692  -46.7446    5.6997 C   0  0  0  0  0  0  0  0  0  0  0  0
   37.9863  -47.8220    5.9722 C   0  0  0  0  0  0  0  0  0  0  0  0
   38.8311  -47.8057    7.0581 C   0  0  0  0  0  0  0  0  0  0  0  0
   39.4413  -40.1579    6.8971 N   0  0  0  0  0  0  0  0  0  0  0  0
   40.0516  -36.8433    5.2606 C   0  0  0  0  0  0  0  0  0  0  0  0
   40.1192  -36.1905    4.0387 C   0  0  0  0  0  0  0  0  0  0  0  0
  1  2  1  0  0  0  0
  2  3  2  0  0  0  0
  3  4  1  0  0  0  0
  4  5  2  0  0  0  0
  5  6  1  0  0  0  0
  5 24  1  0  0  0  0
  6  7  2  0  0  0  0
  7  8  1  0  0  0  0
  8  9  1  0  0  0  0
  9 10  1  0  0  0  0
  9 23  2  0  0  0  0
 10 11  1  0  0  0  0
 11 12  1  0  0  0  0
 12 13  1  0  0  0  0
 13 14  2  0  0  0  0
 13 15  1  0  0  0  0
 15 16  1  0  0  0  0
 16 17  1  0  0  0  0
 17 18  2  0  0  0  0
 18 19  1  0  0  0  0
 19 20  2  0  0  0  0
 20 21  1  0  0  0  0
 21 22  2  0  0  0  0
 22 17  1  0  0  0  0
 23  6  1  0  0  0  0
 24 25  2  0  0  0  0
 25  2  1  0  0  0  0
M  END
>  <CHROM.1>
166.54298793,-50.14625402,-170.94203071,68.86222312,44.84966513,-94.54564287
4.85021539,39.53822474,-41.88551115,6.95559618,1.23926203,-1.24428288,-0.72791895

>  <Name>
design_4

>  <RI>
0

>  <Rbt.Current_Directory>
/home/ziqiaoxu/icml18-jtnn/VAEdesign

>  <Rbt.Executable>
rbdock ($Id: //depot/dev/client3/rdock/2013.1/src/exe/rbdock.cxx#4 $)

>  <Rbt.Library>
libRbt.so (2013.1, Build901 2013/11/27)

>  <Rbt.Parameter_File>
/export/apps/rDock/src/rDock_2013.1_src//data/scripts/dock.prm

>  <Rbt.Receptor>
/home/ziqiaoxu/icml18-jtnn/VAEdesign/targets/RdRp-SARS-CoV-2/pocket_docking.prm

>  <SCORE>
-16.9585

>  <SCORE.INTER>
-17.6148

>  <SCORE.INTER.CONST>
1

>  <SCORE.INTER.POLAR>
-1.33583

>  <SCORE.INTER.REPUL>
0.151502

>  <SCORE.INTER.ROT>
7

>  <SCORE.INTER.VDW>
-26.2305

>  <SCORE.INTER.norm>
-0.704593

>  <SCORE.INTRA>
0.641002

>  <SCORE.INTRA.DIHEDRAL>
1.31049

>  <SCORE.INTRA.DIHEDRAL.0>
4.72159

>  <SCORE.INTRA.POLAR>
0

>  <SCORE.INTRA.POLAR.0>
0

>  <SCORE.INTRA.REPUL>
0

>  <SCORE.INTRA.REPUL.0>
0

>  <SCORE.INTRA.VDW>
-0.0142438

>  <SCORE.INTRA.VDW.0>
-1.74528

>  <SCORE.INTRA.norm>
0.0256401

>  <SCORE.RESTR>
0.0153647

>  <SCORE.RESTR.CAVITY>
0.0153647

>  <SCORE.RESTR.norm>
0.000614588

>  <SCORE.SYSTEM>
0

>  <SCORE.SYSTEM.CONST>
0

>  <SCORE.SYSTEM.DIHEDRAL>
0

>  <SCORE.SYSTEM.norm>
0

>  <SCORE.heavy>
25

>  <SCORE.norm>
-0.678339

$$$$
design_12
 OpenBabel05252019093D

 25 27  0  0  0  0  0  0  0  0999 V2000
   46.7154  -46.1152    3.4392 C   0  0  0  0  0  0  0  0  0  0  0  0
   46.3740  -45.5174    4.7800 C   0  0  0  0  0  0  0  0  0  0  0  0
   47.0888  -44.6997    5.5545 N   0  0  0  0  0  0  0  0  0  0  0  0
   46.4272  -44.4034    6.6598 N   0  0  0  0  0  0  0  0  0  0  0  0
   45.2434  -45.0483    6.6050 C   0  0  0  0  0  0  0  0  0  0  0  0
   44.1664  -45.0198    7.6142 C   0  0  0  0  0  0  0  0  0  0  0  0
   44.2512  -44.3396    8.8004 C   0  0  0  0  0  0  0  0  0  0  0  0
   43.1834  -44.3650    9.7083 C   0  0  0  0  0  0  0  0  0  0  0  0
   42.0357  -45.0658    9.4347 C   0  0  0  0  0  0  0  0  0  0  0  0
   40.9026  -45.0801   10.4239 C   0  0  0  0  0  0  0  0  0  0  0  0
   40.0471  -46.1825   10.0860 N   0  0  0  0  0  0  0  0  0  0  0  0
   38.9394  -45.9733    9.1807 C   0  0  0  0  0  0  0  0  0  0  0  0
   38.8003  -44.8197    8.7502 O   0  0  0  0  0  0  0  0  0  0  0  0
   38.0745  -47.1060    8.8363 C   0  0  0  0  0  0  0  0  0  0  0  0
   38.4565  -47.8784    7.6548 C   0  0  0  0  0  0  0  0  0  0  0  0
   38.8072  -47.2008    6.4548 N   0  0  0  0  0  0  0  0  0  0  0  0
   40.0546  -47.1840    5.9801 C   0  0  0  0  0  0  0  0  0  0  0  0
   40.4176  -46.5748    4.7828 C   0  0  0  0  0  0  0  0  0  0  0  0
   39.4274  -45.9620    4.0581 C   0  0  0  0  0  0  0  0  0  0  0  0
   38.1520  -45.9792    4.5408 C   0  0  0  0  0  0  0  0  0  0  0  0
   37.8390  -46.5800    5.7071 C   0  0  0  0  0  0  0  0  0  0  0  0
   36.6744  -46.6158    6.1825 O   0  0  0  0  0  0  0  0  0  0  0  0
   41.9472  -45.7512    8.2428 C   0  0  0  0  0  0  0  0  0  0  0  0
   43.0069  -45.7219    7.3492 C   0  0  0  0  0  0  0  0  0  0  0  0
   45.2258  -45.7307    5.4396 N   0  0  0  0  0  0  0  0  0  0  0  0
  1  2  1  0  0  0  0
  2  3  2  0  0  0  0
  3  4  1  0  0  0  0
  4  5  1  0  0  0  0
  5  6  1  0  0  0  0
  5 25  2  0  0  0  0
  6  7  2  0  0  0  0
  7  8  1  0  0  0  0
  8  9  2  0  0  0  0
  9 10  1  0  0  0  0
  9 23  1  0  0  0  0
 10 11  1  0  0  0  0
 11 12  1  0  0  0  0
 12 13  2  0  0  0  0
 12 14  1  0  0  0  0
 14 15  1  0  0  0  0
 15 16  1  0  0  0  0
 16 17  1  0  0  0  0
 17 18  2  0  0  0  0
 18 19  1  0  0  0  0
 19 20  2  0  0  0  0
 20 21  1  0  0  0  0
 21 22  2  0  0  0  0
 21 16  1  0  0  0  0
 23 24  2  0  0  0  0
 24  6  1  0  0  0  0
 25  2  1  0  0  0  0
M  END
>  <CHROM.1>
-2.10048199,-162.49502303,-91.06683439,-90.95922260,-46.64150222,110.72298272
41.65181518,-45.80552278,7.05890635,0.12856161,-0.21438700,-1.78575441

>  <Name>
design_12

>  <RI>
0

>  <Rbt.Current_Directory>
/home/ziqiaoxu/icml18-jtnn/VAEdesign

>  <Rbt.Executable>
rbdock ($Id: //depot/dev/client3/rdock/2013.1/src/exe/rbdock.cxx#4 $)

>  <Rbt.Library>
libRbt.so (2013.1, Build901 2013/11/27)

>  <Rbt.Parameter_File>
/export/apps/rDock/src/rDock_2013.1_src//data/scripts/dock.prm

>  <Rbt.Receptor>
/home/ziqiaoxu/icml18-jtnn/VAEdesign/targets/RdRp-SARS-CoV-2/pocket_docking.prm

>  <SCORE>
-19.604

>  <SCORE.INTER>
-19.4021

>  <SCORE.INTER.CONST>
1

>  <SCORE.INTER.POLAR>
-1.34725

>  <SCORE.INTER.REPUL>
0

>  <SCORE.INTER.ROT>
6

>  <SCORE.INTER.VDW>
-26.2214

>  <SCORE.INTER.norm>
-0.776082

>  <SCORE.INTRA>
-0.201963

>  <SCORE.INTRA.DIHEDRAL>
1.53221

>  <SCORE.INTRA.DIHEDRAL.0>
5.31929

>  <SCORE.INTRA.POLAR>
0

>  <SCORE.INTRA.POLAR.0>
0

>  <SCORE.INTRA.REPUL>
0

>  <SCORE.INTRA.REPUL.0>
0

>  <SCORE.INTRA.VDW>
-0.968069

>  <SCORE.INTRA.VDW.0>
-2.10679

>  <SCORE.INTRA.norm>
-0.00807853

>  <SCORE.RESTR>
0

>  <SCORE.RESTR.CAVITY>
0

>  <SCORE.RESTR.norm>
0

>  <SCORE.SYSTEM>
0

>  <SCORE.SYSTEM.CONST>
0

>  <SCORE.SYSTEM.DIHEDRAL>
0

>  <SCORE.SYSTEM.norm>
0

>  <SCORE.heavy>
25

>  <SCORE.norm>
-0.784161

$$$$
design_10
 OpenBabel05252019093D

 26 28  0  0  0  0  0  0  0  0999 V2000
   40.2000  -45.9695   10.9956 N   0  0  0  0  0  0  0  0  0  0  0  0
   40.8000  -45.7411    9.7326 C   0  0  0  0  0  0  0  0  0  0  0  0
   41.6869  -44.8298    9.6208 O   0  0  0  0  0  0  0  0  0  0  0  0
   40.4630  -46.4893    8.5441 C   0  0  0  0  0  0  0  0  0  0  0  0
   39.5375  -47.5005    8.5504 C   0  0  0  0  0  0  0  0  0  0  0  0
   39.2329  -48.2022    7.3974 C   0  0  0  0  0  0  0  0  0  0  0  0
   39.8837  -47.8573    6.2445 C   0  0  0  0  0  0  0  0  0  0  0  0
   40.8360  -46.8387    6.1677 C   0  0  0  0  0  0  0  0  0  0  0  0
   41.4541  -46.5913    4.9227 N   0  0  0  0  0  0  0  0  0  0  0  0
   42.5138  -45.7113    4.7097 C   0  0  0  0  0  0  0  0  0  0  0  0
   43.0398  -45.0289    5.6033 O   0  0  0  0  0  0  0  0  0  0  0  0
   43.0584  -45.5780    3.3030 C   0  0  0  0  0  0  0  0  0  0  0  0
   42.1526  -44.6990    2.4837 C   0  0  0  0  0  0  0  0  0  0  0  0
   42.7860  -44.2670    1.2153 C   0  0  0  0  0  0  0  0  0  0  0  0
   43.1918  -45.1461    0.4264 O   0  0  0  0  0  0  0  0  0  0  0  0
   42.9203  -42.8516    0.9191 C   0  0  0  0  0  0  0  0  0  0  0  0
   42.0130  -41.9863    1.4867 C   0  0  0  0  0  0  0  0  0  0  0  0
   42.1366  -40.6279    1.2064 C   0  0  0  0  0  0  0  0  0  0  0  0
   43.1308  -40.1410    0.3871 C   0  0  0  0  0  0  0  0  0  0  0  0
   44.0437  -41.0061   -0.1848 C   0  0  0  0  0  0  0  0  0  0  0  0
   43.9131  -42.3606    0.1002 C   0  0  0  0  0  0  0  0  0  0  0  0
   45.0422  -40.5080   -1.0089 O   0  0  0  0  0  0  0  0  0  0  0  0
   44.9534  -39.1888   -1.5222 C   0  0  0  0  0  0  0  0  0  0  0  0
   44.5473  -38.2932   -0.3570 C   0  0  0  0  0  0  0  0  0  0  0  0
   43.2776  -38.7880    0.0900 O   0  0  0  0  0  0  0  0  0  0  0  0
   41.0956  -46.1833    7.3336 C   0  0  0  0  0  0  0  0  0  0  0  0
  1  2  1  0  0  0  0
  2  3  2  0  0  0  0
  2  4  1  0  0  0  0
  4  5  2  0  0  0  0
  5  6  1  0  0  0  0
  6  7  2  0  0  0  0
  7  8  1  0  0  0  0
  8  9  1  0  0  0  0
  8 26  2  0  0  0  0
  9 10  1  0  0  0  0
 10 11  2  0  0  0  0
 10 12  1  0  0  0  0
 12 13  1  0  0  0  0
 13 14  1  0  0  0  0
 14 15  2  0  0  0  0
 14 16  1  0  0  0  0
 16 17  2  0  0  0  0
 17 18  1  0  0  0  0
 18 19  2  0  0  0  0
 19 20  1  0  0  0  0
 20 21  2  0  0  0  0
 20 22  1  0  0  0  0
 21 16  1  0  0  0  0
 22 23  1  0  0  0  0
 23 24  1  0  0  0  0
 24 25  1  0  0  0  0
 25 19  1  0  0  0  0
 26  4  1  0  0  0  0
M  END
>  <CHROM.1>
-0.80495731,-173.06547337,78.44467793,166.28166996,57.09670378,-26.74651441
42.26388611,-43.89952260,3.78036311,-3.01653363,-1.26122647,-2.38619605

>  <Name>
design_10

>  <RI>
0

>  <Rbt.Current_Directory>
/home/ziqiaoxu/icml18-jtnn/VAEdesign

>  <Rbt.Executable>
rbdock ($Id: //depot/dev/client3/rdock/2013.1/src/exe/rbdock.cxx#4 $)

>  <Rbt.Library>
libRbt.so (2013.1, Build901 2013/11/27)

>  <Rbt.Parameter_File>
/export/apps/rDock/src/rDock_2013.1_src//data/scripts/dock.prm

>  <Rbt.Receptor>
/home/ziqiaoxu/icml18-jtnn/VAEdesign/targets/RdRp-SARS-CoV-2/pocket_docking.prm

>  <SCORE>
-22.8228

>  <SCORE.INTER>
-22.2604

>  <SCORE.INTER.CONST>
1

>  <SCORE.INTER.POLAR>
-2.36192

>  <SCORE.INTER.REPUL>
0.118165

>  <SCORE.INTER.ROT>
6

>  <SCORE.INTER.VDW>
-26.2207

>  <SCORE.INTER.norm>
-0.85617

>  <SCORE.INTRA>
-0.562436

>  <SCORE.INTRA.DIHEDRAL>
4.36094

>  <SCORE.INTRA.DIHEDRAL.0>
3.22249

>  <SCORE.INTRA.POLAR>
0

>  <SCORE.INTRA.POLAR.0>
0

>  <SCORE.INTRA.REPUL>
0

>  <SCORE.INTRA.REPUL.0>
0

>  <SCORE.INTRA.VDW>
-2.7429

>  <SCORE.INTRA.VDW.0>
2.78429

>  <SCORE.INTRA.norm>
-0.0216321

>  <SCORE.RESTR>
0

>  <SCORE.RESTR.CAVITY>
0

>  <SCORE.RESTR.norm>
0

>  <SCORE.SYSTEM>
0

>  <SCORE.SYSTEM.CONST>
0

>  <SCORE.SYSTEM.DIHEDRAL>
0

>  <SCORE.SYSTEM.norm>
0

>  <SCORE.heavy>
26

>  <SCORE.norm>
-0.877802

$$$$
design_9
 OpenBabel05252019093D

 25 26  0  0  0  0  0  0  0  0999 V2000
   38.6427  -49.3062    6.1135 C   0  0  0  0  0  0  0  0  0  0  0  0
   39.0998  -48.2898    7.0963 C   0  0  0  0  0  0  0  0  0  0  0  0
   38.2960  -47.9261    8.1548 C   0  0  0  0  0  0  0  0  0  0  0  0
   38.7253  -46.9794    9.0676 C   0  0  0  0  0  0  0  0  0  0  0  0
   39.9665  -46.3984    8.9132 C   0  0  0  0  0  0  0  0  0  0  0  0
   40.4879  -45.2087   10.0736 S   0  0  0  0  0  0  0  0  0  0  0  0
   41.8589  -44.7225    9.6214 O   0  0  0  0  0  0  0  0  0  0  0  0
   40.6752  -45.8678   11.3840 O   0  0  0  0  0  0  0  0  0  0  0  0
   39.4722  -43.8368   10.1305 N   0  0  0  0  0  0  0  0  0  0  0  0
   40.1135  -42.6918   10.7454 C   0  0  0  0  0  0  0  0  0  0  0  0
   39.3649  -41.4205   10.5247 C   0  0  0  0  0  0  0  0  0  0  0  0
   39.4463  -40.9835    9.0745 C   0  0  0  0  0  0  0  0  0  0  0  0
   39.4246  -41.8811    8.2065 O   0  0  0  0  0  0  0  0  0  0  0  0
   39.5391  -39.6237    8.7981 N   0  0  0  0  0  0  0  0  0  0  0  0
   39.6245  -38.9970    7.5411 C   0  0  0  0  0  0  0  0  0  0  0  0
   39.4265  -39.7567    6.3815 C   0  0  0  0  0  0  0  0  0  0  0  0
   39.4899  -39.2361    5.1150 C   0  0  0  0  0  0  0  0  0  0  0  0
   39.7597  -37.9020    4.9270 C   0  0  0  0  0  0  0  0  0  0  0  0
   39.8285  -37.3388    3.5662 C   0  0  0  0  0  0  0  0  0  0  0  0
   39.9498  -35.9431    3.4213 N   0  0  0  0  0  0  0  0  0  0  0  0
   39.7763  -38.1282    2.5809 O   0  0  0  0  0  0  0  0  0  0  0  0
   39.9600  -37.1214    6.0263 C   0  0  0  0  0  0  0  0  0  0  0  0
   39.8914  -37.6697    7.3115 C   0  0  0  0  0  0  0  0  0  0  0  0
   40.7882  -46.7568    7.8487 C   0  0  0  0  0  0  0  0  0  0  0  0
   40.3435  -47.6997    6.9522 C   0  0  0  0  0  0  0  0  0  0  0  0
  1  2  1  0  0  0  0
  2  3  2  0  0  0  0
  3  4  1  0  0  0  0
  4  5  2  0  0  0  0
  5  6  1  0  0  0  0
  5 24  1  0  0  0  0
  6  7  2  0  0  0  0
  6  8  2  0  0  0  0
  6  9  1  0  0  0  0
  9 10  1  0  0  0  0
 10 11  1  0  0  0  0
 11 12  1  0  0  0  0
 12 13  2  0  0  0  0
 12 14  1  0  0  0  0
 14 15  1  0  0  0  0
 15 16  2  0  0  0  0
 16 17  1  0  0  0  0
 17 18  2  0  0  0  0
 18 19  1  0  0  0  0
 18 22  1  0  0  0  0
 19 20  1  0  0  0  0
 19 21  2  0  0  0  0
 22 23  2  0  0  0  0
 23 15  1  0  0  0  0
 24 25  2  0  0  0  0
 25  2  1  0  0  0  0
M  END
>  <CHROM.1>
-178.23803350,-161.21279955,166.95440341,-69.98894006,36.71364146,9.21015667
172.60465690,39.81127824,-42.60086628,7.73666767,1.54194190,1.44560222,2.78133705

>  <Name>
design_9

>  <RI>
0

>  <Rbt.Current_Directory>
/home/ziqiaoxu/icml18-jtnn/VAEdesign

>  <Rbt.Executable>
rbdock ($Id: //depot/dev/client3/rdock/2013.1/src/exe/rbdock.cxx#4 $)

>  <Rbt.Library>
libRbt.so (2013.1, Build901 2013/11/27)

>  <Rbt.Parameter_File>
/export/apps/rDock/src/rDock_2013.1_src//data/scripts/dock.prm

>  <Rbt.Receptor>
/home/ziqiaoxu/icml18-jtnn/VAEdesign/targets/RdRp-SARS-CoV-2/pocket_docking.prm

>  <SCORE>
-21.6812

>  <SCORE.INTER>
-22.9714

>  <SCORE.INTER.CONST>
1

>  <SCORE.INTER.POLAR>
-2.69258

>  <SCORE.INTER.REPUL>
0

>  <SCORE.INTER.ROT>
7

>  <SCORE.INTER.VDW>
-26.2166

>  <SCORE.INTER.norm>
-0.918855

>  <SCORE.INTRA>
0.835231

>  <SCORE.INTRA.DIHEDRAL>
2.19664

>  <SCORE.INTRA.DIHEDRAL.0>
2.49677

>  <SCORE.INTRA.POLAR>
0

>  <SCORE.INTRA.POLAR.0>
0

>  <SCORE.INTRA.REPUL>
0

>  <SCORE.INTRA.REPUL.0>
0

>  <SCORE.INTRA.VDW>
-0.263091

>  <SCORE.INTRA.VDW.0>
-0.514916

>  <SCORE.INTRA.norm>
0.0334092

>  <SCORE.RESTR>
0.45499

>  <SCORE.RESTR.CAVITY>
0.45499

>  <SCORE.RESTR.norm>
0.0181996

>  <SCORE.SYSTEM>
0

>  <SCORE.SYSTEM.CONST>
0

>  <SCORE.SYSTEM.DIHEDRAL>
0

>  <SCORE.SYSTEM.norm>
0

>  <SCORE.heavy>
25

>  <SCORE.norm>
-0.867246

$$$$
design_16
 OpenBabel05252019093D

 22 24  0  0  0  0  0  0  0  0999 V2000
   45.9512  -45.3350    3.9109 C   0  0  0  0  0  0  0  0  0  0  0  0
   45.1190  -45.2204    5.1602 C   0  0  0  0  0  0  0  0  0  0  0  0
   45.6711  -44.8127    6.3509 C   0  0  0  0  0  0  0  0  0  0  0  0
   44.8880  -44.7096    7.5069 C   0  0  0  0  0  0  0  0  0  0  0  0
   43.5531  -45.0095    7.4925 C   0  0  0  0  0  0  0  0  0  0  0  0
   42.7026  -44.9097    8.6976 C   0  0  0  0  0  0  0  0  0  0  0  0
   43.1280  -44.1908    9.7922 C   0  0  0  0  0  0  0  0  0  0  0  0
   41.8120  -44.3955   10.8640 S   0  0  0  0  0  0  0  0  0  0  0  0
   40.8233  -45.3612    9.8763 C   0  0  0  0  0  0  0  0  0  0  0  0
   39.5183  -45.9432   10.1024 N   0  0  0  0  0  0  0  0  0  0  0  0
   38.8813  -46.6501    9.0727 C   0  0  0  0  0  0  0  0  0  0  0  0
   37.7326  -47.1332    9.3572 O   0  0  0  0  0  0  0  0  0  0  0  0
   39.3989  -46.8804    7.7326 C   0  0  0  0  0  0  0  0  0  0  0  0
   38.3450  -46.5065    6.6924 C   0  0  0  0  0  0  0  0  0  0  0  0
   37.9624  -47.4220    5.7415 C   0  0  0  0  0  0  0  0  0  0  0  0
   36.8031  -46.5375    4.8543 S   0  0  0  0  0  0  0  0  0  0  0  0
   36.8701  -45.0749    5.7306 C   0  0  0  0  0  0  0  0  0  0  0  0
   36.0975  -43.7906    5.5181 C   0  0  0  0  0  0  0  0  0  0  0  0
   37.7749  -45.3395    6.6550 N   0  0  0  0  0  0  0  0  0  0  0  0
   41.5464  -45.4807    8.7755 N   0  0  0  0  0  0  0  0  0  0  0  0
   43.0135  -45.4158    6.2963 C   0  0  0  0  0  0  0  0  0  0  0  0
   43.7753  -45.5231    5.1421 C   0  0  0  0  0  0  0  0  0  0  0  0
  1  2  1  0  0  0  0
  2  3  2  0  0  0  0
  3  4  1  0  0  0  0
  4  5  2  0  0  0  0
  5  6  1  0  0  0  0
  5 21  1  0  0  0  0
  6  7  2  0  0  0  0
  7  8  1  0  0  0  0
  8  9  1  0  0  0  0
  9 10  1  0  0  0  0
  9 20  2  0  0  0  0
 10 11  1  0  0  0  0
 11 12  2  0  0  0  0
 11 13  1  0  0  0  0
 13 14  1  0  0  0  0
 14 15  2  0  0  0  0
 15 16  1  0  0  0  0
 16 17  1  0  0  0  0
 17 18  1  0  0  0  0
 17 19  2  0  0  0  0
 19 14  1  0  0  0  0
 20  6  1  0  0  0  0
 21 22  2  0  0  0  0
 22  2  1  0  0  0  0
M  END
>  <CHROM.1>
16.84431684,176.38292614,-130.08107389,-125.47867424,40.72897589,-45.53010189
7.39886522,-0.09326136,-0.14770488,-1.66077757

>  <Name>
design_16

>  <RI>
0

>  <Rbt.Current_Directory>
/home/ziqiaoxu/icml18-jtnn/VAEdesign

>  <Rbt.Executable>
rbdock ($Id: //depot/dev/client3/rdock/2013.1/src/exe/rbdock.cxx#4 $)

>  <Rbt.Library>
libRbt.so (2013.1, Build901 2013/11/27)

>  <Rbt.Parameter_File>
/export/apps/rDock/src/rDock_2013.1_src//data/scripts/dock.prm

>  <Rbt.Receptor>
/home/ziqiaoxu/icml18-jtnn/VAEdesign/targets/RdRp-SARS-CoV-2/pocket_docking.prm

>  <SCORE>
-21.5363

>  <SCORE.INTER>
-20.0941

>  <SCORE.INTER.CONST>
1

>  <SCORE.INTER.POLAR>
-0.966097

>  <SCORE.INTER.REPUL>
0.000704694

>  <SCORE.INTER.ROT>
4

>  <SCORE.INTER.VDW>
-26.2129

>  <SCORE.INTER.norm>
-0.913368

>  <SCORE.INTRA>
-1.4422

>  <SCORE.INTRA.DIHEDRAL>
-0.0538015

>  <SCORE.INTRA.DIHEDRAL.0>
2.7431

>  <SCORE.INTRA.POLAR>
0

>  <SCORE.INTRA.POLAR.0>
0

>  <SCORE.INTRA.REPUL>
0.00523575

>  <SCORE.INTRA.REPUL.0>
0

>  <SCORE.INTRA.VDW>
-1.44148

>  <SCORE.INTRA.VDW.0>
0.614372

>  <SCORE.INTRA.norm>
-0.0655545

>  <SCORE.RESTR>
0

>  <SCORE.RESTR.CAVITY>
0

>  <SCORE.RESTR.norm>
0

>  <SCORE.SYSTEM>
0

>  <SCORE.SYSTEM.CONST>
0

>  <SCORE.SYSTEM.DIHEDRAL>
0

>  <SCORE.SYSTEM.norm>
0

>  <SCORE.heavy>
22

>  <SCORE.norm>
-0.978923

$$$$
design_3
 OpenBabel05252019093D

 24 26  0  0  0  0  0  0  0  0999 V2000
   40.0852  -46.3562   10.3847 N   0  0  0  0  0  0  0  0  0  0  0  0
   40.6565  -46.0548    9.0814 C   0  0  0  0  0  0  0  0  0  0  0  0
   41.4216  -45.0600    9.0651 O   0  0  0  0  0  0  0  0  0  0  0  0
   40.2970  -46.9032    7.9784 C   0  0  0  0  0  0  0  0  0  0  0  0
   39.2758  -47.8376    8.2097 C   0  0  0  0  0  0  0  0  0  0  0  0
   38.8120  -48.6377    7.2096 C   0  0  0  0  0  0  0  0  0  0  0  0
   39.3620  -48.5132    5.9724 C   0  0  0  0  0  0  0  0  0  0  0  0
   40.3701  -47.6023    5.7167 C   0  0  0  0  0  0  0  0  0  0  0  0
   40.8616  -46.7715    6.7295 C   0  0  0  0  0  0  0  0  0  0  0  0
   41.9568  -45.9189    6.4776 N   0  0  0  0  0  0  0  0  0  0  0  0
   42.6115  -45.6861    5.2534 C   0  0  0  0  0  0  0  0  0  0  0  0
   42.2783  -46.2250    4.1971 O   0  0  0  0  0  0  0  0  0  0  0  0
   43.7696  -44.7291    5.2663 C   0  0  0  0  0  0  0  0  0  0  0  0
   44.9537  -45.4338    5.8842 C   0  0  0  0  0  0  0  0  0  0  0  0
   46.2238  -45.1333    5.1183 C   0  0  0  0  0  0  0  0  0  0  0  0
   46.0992  -45.5946    3.6903 C   0  0  0  0  0  0  0  0  0  0  0  0
   45.0745  -45.5923    2.8841 N   0  0  0  0  0  0  0  0  0  0  0  0
   45.1737  -46.0417    1.6679 C   0  0  0  0  0  0  0  0  0  0  0  0
   44.1395  -46.0866    0.7184 C   0  0  0  0  0  0  0  0  0  0  0  0
   44.3810  -46.5838   -0.5225 C   0  0  0  0  0  0  0  0  0  0  0  0
   45.5966  -47.0696   -0.9578 C   0  0  0  0  0  0  0  0  0  0  0  0
   46.6111  -47.0226   -0.0177 C   0  0  0  0  0  0  0  0  0  0  0  0
   46.3929  -46.5165    1.2675 C   0  0  0  0  0  0  0  0  0  0  0  0
   47.3265  -46.2812    2.6862 S   0  0  0  0  0  0  0  0  0  0  0  0
  1  2  1  0  0  0  0
  2  3  2  0  0  0  0
  2  4  1  0  0  0  0
  4  5  2  0  0  0  0
  5  6  1  0  0  0  0
  6  7  2  0  0  0  0
  7  8  1  0  0  0  0
  8  9  2  0  0  0  0
  9 10  1  0  0  0  0
  9  4  1  0  0  0  0
 10 11  1  0  0  0  0
 11 12  2  0  0  0  0
 11 13  1  0  0  0  0
 13 14  1  0  0  0  0
 14 15  1  0  0  0  0
 15 16  1  0  0  0  0
 16 17  2  0  0  0  0
 17 18  1  0  0  0  0
 18 19  2  0  0  0  0
 19 20  1  0  0  0  0
 20 21  2  0  0  0  0
 21 22  1  0  0  0  0
 22 23  2  0  0  0  0
 23 24  1  0  0  0  0
 23 18  1  0  0  0  0
 24 16  1  0  0  0  0
M  END
>  <CHROM.1>
8.80756724,-179.28509467,75.61440561,137.83571042,-60.15140221,36.20457114
43.27727373,-46.36753713,4.72444435,-2.35175447,-0.41419886,-1.87425311

>  <Name>
design_3

>  <RI>
0

>  <Rbt.Current_Directory>
/home/ziqiaoxu/icml18-jtnn/VAEdesign

>  <Rbt.Executable>
rbdock ($Id: //depot/dev/client3/rdock/2013.1/src/exe/rbdock.cxx#4 $)

>  <Rbt.Library>
libRbt.so (2013.1, Build901 2013/11/27)

>  <Rbt.Parameter_File>
/export/apps/rDock/src/rDock_2013.1_src//data/scripts/dock.prm

>  <Rbt.Receptor>
/home/ziqiaoxu/icml18-jtnn/VAEdesign/targets/RdRp-SARS-CoV-2/pocket_docking.prm

>  <SCORE>
-21.9107

>  <SCORE.INTER>
-21.9307

>  <SCORE.INTER.CONST>
1

>  <SCORE.INTER.POLAR>
-2.12172

>  <SCORE.INTER.REPUL>
0.0189636

>  <SCORE.INTER.ROT>
6

>  <SCORE.INTER.VDW>
-26.2117

>  <SCORE.INTER.norm>
-0.913779

>  <SCORE.INTRA>
0.0199959

>  <SCORE.INTRA.DIHEDRAL>
3.11995

>  <SCORE.INTRA.DIHEDRAL.0>
4.1876

>  <SCORE.INTRA.POLAR>
0

>  <SCORE.INTRA.POLAR.0>
0

>  <SCORE.INTRA.REPUL>
0

>  <SCORE.INTRA.REPUL.0>
0

>  <SCORE.INTRA.VDW>
-1.53998

>  <SCORE.INTRA.VDW.0>
0.589661

>  <SCORE.INTRA.norm>
0.000833163

>  <SCORE.RESTR>
0

>  <SCORE.RESTR.CAVITY>
0

>  <SCORE.RESTR.norm>
0

>  <SCORE.SYSTEM>
0

>  <SCORE.SYSTEM.CONST>
0

>  <SCORE.SYSTEM.DIHEDRAL>
0

>  <SCORE.SYSTEM.norm>
0

>  <SCORE.heavy>
24

>  <SCORE.norm>
-0.912946

$$$$
design_2
 OpenBabel05252019093D

 25 27  0  0  0  0  0  0  0  0999 V2000
   41.5080  -44.6580    8.1482 O   0  0  0  0  0  0  0  0  0  0  0  0
   40.5568  -45.2350    8.7252 C   0  0  0  0  0  0  0  0  0  0  0  0
   40.0122  -44.6895    9.9000 N   0  0  0  0  0  0  0  0  0  0  0  0
   40.4510  -43.4820   10.5486 C   0  0  0  0  0  0  0  0  0  0  0  0
   39.3163  -42.5170   10.7478 C   0  0  0  0  0  0  0  0  0  0  0  0
   39.6949  -41.1850   10.3246 N   0  0  0  0  0  0  0  0  0  0  0  0
   39.7791  -40.8889    8.9305 C   0  0  0  0  0  0  0  0  0  0  0  0
   39.9802  -39.6168    8.4602 C   0  0  0  0  0  0  0  0  0  0  0  0
   40.0631  -39.3232    7.0977 C   0  0  0  0  0  0  0  0  0  0  0  0
   40.2388  -37.9937    6.6562 N   0  0  0  0  0  0  0  0  0  0  0  0
   40.0230  -37.5754    5.3334 C   0  0  0  0  0  0  0  0  0  0  0  0
   40.1948  -36.2891    4.9341 C   0  0  0  0  0  0  0  0  0  0  0  0
   39.9872  -35.9637    3.5898 C   0  0  0  0  0  0  0  0  0  0  0  0
   39.6168  -36.9125    2.6825 C   0  0  0  0  0  0  0  0  0  0  0  0
   39.4571  -38.1610    3.1102 N   0  0  0  0  0  0  0  0  0  0  0  0
   39.6399  -38.5343    4.3762 C   0  0  0  0  0  0  0  0  0  0  0  0
   39.9338  -40.3638    6.2721 N   0  0  0  0  0  0  0  0  0  0  0  0
   39.7378  -41.6082    6.7090 C   0  0  0  0  0  0  0  0  0  0  0  0
   39.6591  -41.8829    8.0236 N   0  0  0  0  0  0  0  0  0  0  0  0
   40.0470  -46.4567    8.1547 C   0  0  0  0  0  0  0  0  0  0  0  0
   40.5473  -46.9632    6.9526 C   0  0  0  0  0  0  0  0  0  0  0  0
   40.1122  -48.1079    6.3612 C   0  0  0  0  0  0  0  0  0  0  0  0
   39.1323  -48.8016    6.9754 N   0  0  0  0  0  0  0  0  0  0  0  0
   38.5997  -48.3818    8.1320 C   0  0  0  0  0  0  0  0  0  0  0  0
   39.0491  -47.2130    8.7286 C   0  0  0  0  0  0  0  0  0  0  0  0
  1  2  2  0  0  0  0
  2  3  1  0  0  0  0
  2 20  1  0  0  0  0
  3  4  1  0  0  0  0
  4  5  1  0  0  0  0
  5  6  1  0  0  0  0
  6  7  1  0  0  0  0
  7  8  2  0  0  0  0
  8  9  1  0  0  0  0
  9 10  1  0  0  0  0
  9 17  2  0  0  0  0
 10 11  1  0  0  0  0
 11 12  2  0  0  0  0
 12 13  1  0  0  0  0
 13 14  2  0  0  0  0
 14 15  1  0  0  0  0
 15 16  2  0  0  0  0
 16 11  1  0  0  0  0
 17 18  1  0  0  0  0
 18 19  2  0  0  0  0
 19  7  1  0  0  0  0
 20 21  2  0  0  0  0
 21 22  1  0  0  0  0
 22 23  2  0  0  0  0
 23 24  1  0  0  0  0
 24 25  2  0  0  0  0
 25 20  1  0  0  0  0
M  END
>  <CHROM.1>
125.45004024,-132.67104297,74.68352670,172.33301676,-164.59818426,179.78278595
-3.09346907,39.90139763,-42.12822242,7.24172251,-1.78399646,-1.51929086,-0.57391066

>  <Name>
design_2

>  <RI>
0

>  <Rbt.Current_Directory>
/home/ziqiaoxu/icml18-jtnn/VAEdesign

>  <Rbt.Executable>
rbdock ($Id: //depot/dev/client3/rdock/2013.1/src/exe/rbdock.cxx#4 $)

>  <Rbt.Library>
libRbt.so (2013.1, Build901 2013/11/27)

>  <Rbt.Parameter_File>
/export/apps/rDock/src/rDock_2013.1_src//data/scripts/dock.prm

>  <Rbt.Receptor>
/home/ziqiaoxu/icml18-jtnn/VAEdesign/targets/RdRp-SARS-CoV-2/pocket_docking.prm

>  <SCORE>
-16.5682

>  <SCORE.INTER>
-17.7981

>  <SCORE.INTER.CONST>
1

>  <SCORE.INTER.POLAR>
-1.17397

>  <SCORE.INTER.REPUL>
0

>  <SCORE.INTER.ROT>
7

>  <SCORE.INTER.VDW>
-26.2066

>  <SCORE.INTER.norm>
-0.711926

>  <SCORE.INTRA>
1.22996

>  <SCORE.INTRA.DIHEDRAL>
2.66541

>  <SCORE.INTRA.DIHEDRAL.0>
6.95129

>  <SCORE.INTRA.POLAR>
0

>  <SCORE.INTRA.POLAR.0>
0

>  <SCORE.INTRA.REPUL>
0

>  <SCORE.INTRA.REPUL.0>
0

>  <SCORE.INTRA.VDW>
-0.102749

>  <SCORE.INTRA.VDW.0>
-0.294877

>  <SCORE.INTRA.norm>
0.0491982

>  <SCORE.RESTR>
0

>  <SCORE.RESTR.CAVITY>
0

>  <SCORE.RESTR.norm>
0

>  <SCORE.SYSTEM>
0

>  <SCORE.SYSTEM.CONST>
0

>  <SCORE.SYSTEM.DIHEDRAL>
0

>  <SCORE.SYSTEM.norm>
0

>  <SCORE.heavy>
25

>  <SCORE.norm>
-0.662727

$$$$
design_4
 OpenBabel05252019093D

 26 29  0  0  0  0  0  0  0  0999 V2000
   41.2804  -44.4963   10.6648 C   0  0  0  0  0  0  0  0  0  0  0  0
   40.7321  -45.5161    9.7001 C   0  0  0  0  0  0  0  0  0  0  0  0
   39.5763  -46.1886    9.8188 N   0  0  0  0  0  0  0  0  0  0  0  0
   39.4106  -47.0190    8.7666 C   0  0  0  0  0  0  0  0  0  0  0  0
   38.4245  -47.9127    8.4016 C   0  0  0  0  0  0  0  0  0  0  0  0
   38.5378  -48.6319    7.2459 C   0  0  0  0  0  0  0  0  0  0  0  0
   39.6135  -48.5197    6.3872 C   0  0  0  0  0  0  0  0  0  0  0  0
   40.5988  -47.6284    6.7495 C   0  0  0  0  0  0  0  0  0  0  0  0
   40.4960  -46.8961    7.9141 C   0  0  0  0  0  0  0  0  0  0  0  0
   41.3086  -45.9444    8.5283 C   0  0  0  0  0  0  0  0  0  0  0  0
   42.5765  -45.4904    7.9841 C   0  0  0  0  0  0  0  0  0  0  0  0
   43.4514  -44.5864    8.4704 N   0  0  0  0  0  0  0  0  0  0  0  0
   44.4693  -44.4915    7.6398 O   0  0  0  0  0  0  0  0  0  0  0  0
   44.3141  -45.2862    6.6278 C   0  0  0  0  0  0  0  0  0  0  0  0
   45.2077  -45.5109    5.4489 C   0  0  0  0  0  0  0  0  0  0  0  0
   44.5578  -44.8771    4.2649 C   0  0  0  0  0  0  0  0  0  0  0  0
   44.6985  -43.6724    3.9957 O   0  0  0  0  0  0  0  0  0  0  0  0
   43.7576  -45.7097    3.4392 N   0  0  0  0  0  0  0  0  0  0  0  0
   43.1119  -45.1417    2.2872 C   0  0  0  0  0  0  0  0  0  0  0  0
   44.0594  -44.7717    1.2046 C   0  0  0  0  0  0  0  0  0  0  0  0
   44.6014  -45.8119    0.4711 C   0  0  0  0  0  0  0  0  0  0  0  0
   45.4980  -45.5772   -0.5635 C   0  0  0  0  0  0  0  0  0  0  0  0
   45.8536  -44.2794   -0.8635 C   0  0  0  0  0  0  0  0  0  0  0  0
   45.3065  -43.2428   -0.1244 C   0  0  0  0  0  0  0  0  0  0  0  0
   44.4192  -43.4935    0.8979 C   0  0  0  0  0  0  0  0  0  0  0  0
   43.1317  -45.9157    6.8349 N   0  0  0  0  0  0  0  0  0  0  0  0
  1  2  1  0  0  0  0
  2  3  1  0  0  0  0
  3  4  1  0  0  0  0
  4  5  2  0  0  0  0
  5  6  1  0  0  0  0
  6  7  2  0  0  0  0
  7  8  1  0  0  0  0
  8  9  2  0  0  0  0
  9 10  1  0  0  0  0
  9  4  1  0  0  0  0
 10 11  1  0  0  0  0
 10  2  2  0  0  0  0
 11 12  2  0  0  0  0
 12 13  1  0  0  0  0
 13 14  1  0  0  0  0
 14 15  1  0  0  0  0
 14 26  2  0  0  0  0
 15 16  1  0  0  0  0
 16 17  2  0  0  0  0
 16 18  1  0  0  0  0
 18 19  1  0  0  0  0
 19 20  1  0  0  0  0
 20 21  2  0  0  0  0
 21 22  1  0  0  0  0
 22 23  2  0  0  0  0
 23 24  1  0  0  0  0
 24 25  2  0  0  0  0
 25 20  1  0  0  0  0
 26 11  1  0  0  0  0
M  END
>  <CHROM.1>
0.04283600,-107.37099589,85.13355720,69.96218709,74.01590951,42.68840949
-45.60570895,5.49178779,-2.23870080,-0.64390019,-1.76567720

>  <Name>
design_4

>  <RI>
0

>  <Rbt.Current_Directory>
/home/ziqiaoxu/icml18-jtnn/VAEdesign

>  <Rbt.Executable>
rbdock ($Id: //depot/dev/client3/rdock/2013.1/src/exe/rbdock.cxx#4 $)

>  <Rbt.Library>
libRbt.so (2013.1, Build901 2013/11/27)

>  <Rbt.Parameter_File>
/export/apps/rDock/src/rDock_2013.1_src//data/scripts/dock.prm

>  <Rbt.Receptor>
/home/ziqiaoxu/icml18-jtnn/VAEdesign/targets/RdRp-SARS-CoV-2/pocket_docking.prm

>  <SCORE>
-28.7199

>  <SCORE.INTER>
-22.4062

>  <SCORE.INTER.CONST>
1

>  <SCORE.INTER.POLAR>
-1.94286

>  <SCORE.INTER.REPUL>
0

>  <SCORE.INTER.ROT>
5

>  <SCORE.INTER.VDW>
-26.2005

>  <SCORE.INTER.norm>
-0.861778

>  <SCORE.INTRA>
-6.31371

>  <SCORE.INTRA.DIHEDRAL>
-11.3924

>  <SCORE.INTRA.DIHEDRAL.0>
16.0077

>  <SCORE.INTRA.POLAR>
0

>  <SCORE.INTRA.POLAR.0>
0

>  <SCORE.INTRA.REPUL>
0

>  <SCORE.INTRA.REPUL.0>
0

>  <SCORE.INTRA.VDW>
-0.617523

>  <SCORE.INTRA.VDW.0>
-2.02801

>  <SCORE.INTRA.norm>
-0.242835

>  <SCORE.RESTR>
0

>  <SCORE.RESTR.CAVITY>
0

>  <SCORE.RESTR.norm>
0

>  <SCORE.SYSTEM>
0

>  <SCORE.SYSTEM.CONST>
0

>  <SCORE.SYSTEM.DIHEDRAL>
0

>  <SCORE.SYSTEM.norm>
0

>  <SCORE.heavy>
26

>  <SCORE.norm>
-1.10461

$$$$
design_9
 OpenBabel05252019093D

 22 23  0  0  0  0  0  0  0  0999 V2000
   45.5831  -44.4113    6.7517 C   0  0  0  0  0  0  0  0  0  0  0  0
   44.5228  -44.4384    7.8088 C   0  0  0  0  0  0  0  0  0  0  0  0
   44.7467  -44.0028    9.0814 C   0  0  0  0  0  0  0  0  0  0  0  0
   43.7278  -44.0527   10.0142 C   0  0  0  0  0  0  0  0  0  0  0  0
   42.4836  -44.5374    9.6785 C   0  0  0  0  0  0  0  0  0  0  0  0
   41.1696  -44.6259   10.7974 S   0  0  0  0  0  0  0  0  0  0  0  0
   40.2955  -43.4119   10.6971 O   0  0  0  0  0  0  0  0  0  0  0  0
   41.7512  -44.7314   12.1930 O   0  0  0  0  0  0  0  0  0  0  0  0
   40.1889  -46.0316   10.5461 N   0  0  0  0  0  0  0  0  0  0  0  0
   39.6348  -45.9279    9.2252 C   0  0  0  0  0  0  0  0  0  0  0  0
   38.9410  -47.1753    8.7587 C   0  0  0  0  0  0  0  0  0  0  0  0
   38.8579  -47.0798    6.9778 S   0  0  0  0  0  0  0  0  0  0  0  0
   40.2983  -46.9567    6.4998 O   0  0  0  0  0  0  0  0  0  0  0  0
   38.3632  -48.4022    6.4861 O   0  0  0  0  0  0  0  0  0  0  0  0
   37.8994  -45.7485    6.4341 C   0  0  0  0  0  0  0  0  0  0  0  0
   36.6363  -45.9821    5.9278 C   0  0  0  0  0  0  0  0  0  0  0  0
   35.8290  -44.9344    5.4777 C   0  0  0  0  0  0  0  0  0  0  0  0
   36.2725  -43.6523    5.5286 C   0  0  0  0  0  0  0  0  0  0  0  0
   37.5293  -43.3906    6.0293 C   0  0  0  0  0  0  0  0  0  0  0  0
   38.3328  -44.4396    6.4780 C   0  0  0  0  0  0  0  0  0  0  0  0
   42.2900  -44.9689    8.3873 C   0  0  0  0  0  0  0  0  0  0  0  0
   43.2881  -44.9276    7.4470 C   0  0  0  0  0  0  0  0  0  0  0  0
  1  2  1  0  0  0  0
  2  3  2  0  0  0  0
  3  4  1  0  0  0  0
  4  5  2  0  0  0  0
  5  6  1  0  0  0  0
  5 21  1  0  0  0  0
  6  7  2  0  0  0  0
  6  8  2  0  0  0  0
  6  9  1  0  0  0  0
  9 10  1  0  0  0  0
 10 11  1  0  0  0  0
 11 12  1  0  0  0  0
 12 13  2  0  0  0  0
 12 14  2  0  0  0  0
 12 15  1  0  0  0  0
 15 16  2  0  0  0  0
 16 17  1  0  0  0  0
 17 18  2  0  0  0  0
 18 19  1  0  0  0  0
 19 20  2  0  0  0  0
 20 15  1  0  0  0  0
 21 22  2  0  0  0  0
 22  2  1  0  0  0  0
M  END
>  <CHROM.1>
94.54113564,-61.91236275,170.36752556,-159.97964631,58.23129445,-105.25702950
40.35240827,-45.28578728,8.19639020,-0.52829902,-0.14779474,-1.70560261

>  <Name>
design_9

>  <RI>
0

>  <Rbt.Current_Directory>
/home/ziqiaoxu/icml18-jtnn/VAEdesign

>  <Rbt.Executable>
rbdock ($Id: //depot/dev/client3/rdock/2013.1/src/exe/rbdock.cxx#4 $)

>  <Rbt.Library>
libRbt.so (2013.1, Build901 2013/11/27)

>  <Rbt.Parameter_File>
/export/apps/rDock/src/rDock_2013.1_src//data/scripts/dock.prm

>  <Rbt.Receptor>
/home/ziqiaoxu/icml18-jtnn/VAEdesign/targets/RdRp-SARS-CoV-2/pocket_docking.prm

>  <SCORE>
-16.8084

>  <SCORE.INTER>
-17.5277

>  <SCORE.INTER.CONST>
1

>  <SCORE.INTER.POLAR>
-1.0198

>  <SCORE.INTER.REPUL>
0.146739

>  <SCORE.INTER.ROT>
6

>  <SCORE.INTER.VDW>
-26.1941

>  <SCORE.INTER.norm>
-0.796714

>  <SCORE.INTRA>
0.719301

>  <SCORE.INTRA.DIHEDRAL>
1.61713

>  <SCORE.INTRA.DIHEDRAL.0>
2.48394

>  <SCORE.INTRA.POLAR>
0

>  <SCORE.INTRA.POLAR.0>
0

>  <SCORE.INTRA.REPUL>
0

>  <SCORE.INTRA.REPUL.0>
0

>  <SCORE.INTRA.VDW>
-0.089262

>  <SCORE.INTRA.VDW.0>
-1.99233

>  <SCORE.INTRA.norm>
0.0326955

>  <SCORE.RESTR>
0

>  <SCORE.RESTR.CAVITY>
0

>  <SCORE.RESTR.norm>
0

>  <SCORE.SYSTEM>
0

>  <SCORE.SYSTEM.CONST>
0

>  <SCORE.SYSTEM.DIHEDRAL>
0

>  <SCORE.SYSTEM.norm>
0

>  <SCORE.heavy>
22

>  <SCORE.norm>
-0.764019

$$$$
design_11
 OpenBabel05252019093D

 25 26  0  0  0  0  0  0  0  0999 V2000
   48.9917  -47.2243    3.5745 C   0  0  0  0  0  0  0  0  0  0  0  0
   48.0686  -46.2719    2.8653 C   0  0  0  0  0  0  0  0  0  0  0  0
   47.3663  -47.0292    1.7469 C   0  0  0  0  0  0  0  0  0  0  0  0
   47.0183  -45.6962    3.7587 C   0  0  0  0  0  0  0  0  0  0  0  0
   47.5420  -44.7436    4.7751 C   0  0  0  0  0  0  0  0  0  0  0  0
   46.3823  -44.3301    5.6616 C   0  0  0  0  0  0  0  0  0  0  0  0
   46.1610  -43.1223    5.8454 O   0  0  0  0  0  0  0  0  0  0  0  0
   45.5784  -45.3273    6.2594 N   0  0  0  0  0  0  0  0  0  0  0  0
   44.4678  -45.1266    7.0963 C   0  0  0  0  0  0  0  0  0  0  0  0
   44.5441  -44.1244    8.0545 C   0  0  0  0  0  0  0  0  0  0  0  0
   43.4973  -43.9193    8.8891 C   0  0  0  0  0  0  0  0  0  0  0  0
   42.3404  -44.6984    8.8041 C   0  0  0  0  0  0  0  0  0  0  0  0
   42.2056  -45.6988    7.8832 C   0  0  0  0  0  0  0  0  0  0  0  0
   41.0506  -46.5368    7.7366 C   0  0  0  0  0  0  0  0  0  0  0  0
   41.0094  -47.2248    6.6227 O   0  0  0  0  0  0  0  0  0  0  0  0
   39.9867  -46.7307    8.5748 N   0  0  0  0  0  0  0  0  0  0  0  0
   39.6694  -46.1776    9.8532 C   0  0  0  0  0  0  0  0  0  0  0  0
   38.9428  -47.6982    8.0805 C   0  0  0  0  0  0  0  0  0  0  0  0
   38.1265  -46.9377    7.1054 C   0  0  0  0  0  0  0  0  0  0  0  0
   37.6409  -45.6683    7.3329 C   0  0  0  0  0  0  0  0  0  0  0  0
   36.8787  -45.0029    6.3803 C   0  0  0  0  0  0  0  0  0  0  0  0
   36.6209  -45.6434    5.2037 C   0  0  0  0  0  0  0  0  0  0  0  0
   37.0948  -46.9084    4.9554 C   0  0  0  0  0  0  0  0  0  0  0  0
   37.8482  -47.5723    5.8914 C   0  0  0  0  0  0  0  0  0  0  0  0
   43.3265  -45.8689    7.0396 C   0  0  0  0  0  0  0  0  0  0  0  0
  1  2  1  0  0  0  0
  2  3  1  0  0  0  0
  2  4  1  0  0  0  0
  4  5  1  0  0  0  0
  5  6  1  0  0  0  0
  6  7  2  0  0  0  0
  6  8  1  0  0  0  0
  8  9  1  0  0  0  0
  9 10  2  0  0  0  0
 10 11  1  0  0  0  0
 11 12  2  0  0  0  0
 12 13  1  0  0  0  0
 13 14  1  0  0  0  0
 13 25  2  0  0  0  0
 14 15  2  0  0  0  0
 14 16  1  0  0  0  0
 16 17  1  0  0  0  0
 16 18  1  0  0  0  0
 18 19  1  0  0  0  0
 19 20  2  0  0  0  0
 20 21  1  0  0  0  0
 21 22  2  0  0  0  0
 22 23  1  0  0  0  0
 23 24  2  0  0  0  0
 24 19  1  0  0  0  0
 25  9  1  0  0  0  0
M  END
>  <CHROM.1>
69.56751897,-175.87878993,-128.05186791,-41.12871723,165.75581655,-79.24587677
-46.40325559,42.59470313,-45.82419230,6.35960668,0.23783305,-0.20223706,-1.98547805

>  <Name>
design_11

>  <RI>
0

>  <Rbt.Current_Directory>
/home/ziqiaoxu/icml18-jtnn/VAEdesign

>  <Rbt.Executable>
rbdock ($Id: //depot/dev/client3/rdock/2013.1/src/exe/rbdock.cxx#4 $)

>  <Rbt.Library>
libRbt.so (2013.1, Build901 2013/11/27)

>  <Rbt.Parameter_File>
/export/apps/rDock/src/rDock_2013.1_src//data/scripts/dock.prm

>  <Rbt.Receptor>
/home/ziqiaoxu/icml18-jtnn/VAEdesign/targets/RdRp-SARS-CoV-2/pocket_docking.prm

>  <SCORE>
-17.1438

>  <SCORE.INTER>
-16.3324

>  <SCORE.INTER.CONST>
1

>  <SCORE.INTER.POLAR>
-0.746564

>  <SCORE.INTER.REPUL>
0

>  <SCORE.INTER.ROT>
7

>  <SCORE.INTER.VDW>
-26.194

>  <SCORE.INTER.norm>
-0.653295

>  <SCORE.INTRA>
-0.811419

>  <SCORE.INTRA.DIHEDRAL>
5.22659

>  <SCORE.INTRA.DIHEDRAL.0>
4.47514

>  <SCORE.INTRA.POLAR>
0

>  <SCORE.INTRA.POLAR.0>
0

>  <SCORE.INTRA.REPUL>
0

>  <SCORE.INTRA.REPUL.0>
0

>  <SCORE.INTRA.VDW>
-3.42471

>  <SCORE.INTRA.VDW.0>
2.72534

>  <SCORE.INTRA.norm>
-0.0324568

>  <SCORE.RESTR>
0

>  <SCORE.RESTR.CAVITY>
0

>  <SCORE.RESTR.norm>
0

>  <SCORE.SYSTEM>
0

>  <SCORE.SYSTEM.CONST>
0

>  <SCORE.SYSTEM.DIHEDRAL>
0

>  <SCORE.SYSTEM.norm>
0

>  <SCORE.heavy>
25

>  <SCORE.norm>
-0.685751

$$$$
design_2
 OpenBabel05252019093D

 22 24  0  0  0  0  0  0  0  0999 V2000
   46.9392  -45.7982    3.6101 C   0  0  0  0  0  0  0  0  0  0  0  0
   46.4685  -45.3068    4.9494 C   0  0  0  0  0  0  0  0  0  0  0  0
   47.1241  -44.4996    5.7998 N   0  0  0  0  0  0  0  0  0  0  0  0
   46.3669  -44.3009    6.8660 N   0  0  0  0  0  0  0  0  0  0  0  0
   45.2039  -44.9704    6.7386 C   0  0  0  0  0  0  0  0  0  0  0  0
   44.1374  -44.9675    7.7313 C   0  0  0  0  0  0  0  0  0  0  0  0
   42.9407  -45.6342    7.4979 C   0  0  0  0  0  0  0  0  0  0  0  0
   41.9388  -45.6272    8.4382 C   0  0  0  0  0  0  0  0  0  0  0  0
   42.0828  -44.9652    9.6360 C   0  0  0  0  0  0  0  0  0  0  0  0
   41.0086  -44.9753   10.6350 C   0  0  0  0  0  0  0  0  0  0  0  0
   40.0762  -46.0114   10.2648 N   0  0  0  0  0  0  0  0  0  0  0  0
   39.0217  -45.8092    9.3606 C   0  0  0  0  0  0  0  0  0  0  0  0
   38.8877  -44.6509    8.8503 O   0  0  0  0  0  0  0  0  0  0  0  0
   38.0754  -46.8859    8.9911 C   0  0  0  0  0  0  0  0  0  0  0  0
   38.6630  -47.6907    7.8320 C   0  0  0  0  0  0  0  0  0  0  0  0
   38.6225  -49.0405    7.8123 C   0  0  0  0  0  0  0  0  0  0  0  0
   39.1767  -49.6655    6.7299 C   0  0  0  0  0  0  0  0  0  0  0  0
   39.7347  -48.3718    5.7752 S   0  0  0  0  0  0  0  0  0  0  0  0
   39.2569  -47.0702    6.7620 C   0  0  0  0  0  0  0  0  0  0  0  0
   43.2537  -44.3027    9.8835 C   0  0  0  0  0  0  0  0  0  0  0  0
   44.2647  -44.3094    8.9364 C   0  0  0  0  0  0  0  0  0  0  0  0
   45.2851  -45.5854    5.5492 N   0  0  0  0  0  0  0  0  0  0  0  0
  1  2  1  0  0  0  0
  2  3  2  0  0  0  0
  3  4  1  0  0  0  0
  4  5  1  0  0  0  0
  5  6  1  0  0  0  0
  5 22  2  0  0  0  0
  6  7  2  0  0  0  0
  7  8  1  0  0  0  0
  8  9  2  0  0  0  0
  9 10  1  0  0  0  0
  9 20  1  0  0  0  0
 10 11  1  0  0  0  0
 11 12  1  0  0  0  0
 12 13  2  0  0  0  0
 12 14  1  0  0  0  0
 14 15  1  0  0  0  0
 15 16  1  0  0  0  0
 16 17  2  0  0  0  0
 17 18  1  0  0  0  0
 18 19  1  0  0  0  0
 19 15  2  0  0  0  0
 20 21  2  0  0  0  0
 21  6  1  0  0  0  0
 22  2  1  0  0  0  0
M  END
>  <CHROM.1>
176.96516202,14.37879903,-85.98494822,-86.32157850,135.97608447,42.06882437
-46.05659385,7.55178878,0.05196477,-0.41958584,-2.18526435

>  <Name>
design_2

>  <RI>
0

>  <Rbt.Current_Directory>
/home/ziqiaoxu/icml18-jtnn/VAEdesign

>  <Rbt.Executable>
rbdock ($Id: //depot/dev/client3/rdock/2013.1/src/exe/rbdock.cxx#4 $)

>  <Rbt.Library>
libRbt.so (2013.1, Build901 2013/11/27)

>  <Rbt.Parameter_File>
/export/apps/rDock/src/rDock_2013.1_src//data/scripts/dock.prm

>  <Rbt.Receptor>
/home/ziqiaoxu/icml18-jtnn/VAEdesign/targets/RdRp-SARS-CoV-2/pocket_docking.prm

>  <SCORE>
-19.329

>  <SCORE.INTER>
-19.9742

>  <SCORE.INTER.CONST>
1

>  <SCORE.INTER.POLAR>
-1.22997

>  <SCORE.INTER.REPUL>
0

>  <SCORE.INTER.ROT>
5

>  <SCORE.INTER.VDW>
-26.1923

>  <SCORE.INTER.norm>
-0.907919

>  <SCORE.INTRA>
0.645213

>  <SCORE.INTRA.DIHEDRAL>
0.0306249

>  <SCORE.INTRA.DIHEDRAL.0>
4.61562

>  <SCORE.INTRA.POLAR>
0

>  <SCORE.INTRA.POLAR.0>
0

>  <SCORE.INTRA.REPUL>
0

>  <SCORE.INTRA.REPUL.0>
0

>  <SCORE.INTRA.VDW>
0.629901

>  <SCORE.INTRA.VDW.0>
-2.25315

>  <SCORE.INTRA.norm>
0.0293279

>  <SCORE.RESTR>
0

>  <SCORE.RESTR.CAVITY>
0

>  <SCORE.RESTR.norm>
0

>  <SCORE.SYSTEM>
0

>  <SCORE.SYSTEM.CONST>
0

>  <SCORE.SYSTEM.DIHEDRAL>
0

>  <SCORE.SYSTEM.norm>
0

>  <SCORE.heavy>
22

>  <SCORE.norm>
-0.878591

$$$$
design_17
 OpenBabel05252019093D

 27 29  0  0  0  0  0  0  0  0999 V2000
   41.3299  -44.7582   11.2358 N   0  0  0  0  0  0  0  0  0  0  0  0
   41.0405  -45.2458    9.9123 C   0  0  0  0  0  0  0  0  0  0  0  0
   41.4765  -44.5574    8.9778 O   0  0  0  0  0  0  0  0  0  0  0  0
   40.3121  -46.4231    9.7243 N   0  0  0  0  0  0  0  0  0  0  0  0
   39.9464  -47.0425    8.5171 C   0  0  0  0  0  0  0  0  0  0  0  0
   39.0144  -48.0195    8.4430 C   0  0  0  0  0  0  0  0  0  0  0  0
   38.6929  -48.6236    7.2242 C   0  0  0  0  0  0  0  0  0  0  0  0
   39.3310  -48.2180    6.0935 C   0  0  0  0  0  0  0  0  0  0  0  0
   40.3036  -47.2097    6.1167 C   0  0  0  0  0  0  0  0  0  0  0  0
   40.9332  -46.8470    4.9187 N   0  0  0  0  0  0  0  0  0  0  0  0
   42.1502  -46.1872    4.7540 C   0  0  0  0  0  0  0  0  0  0  0  0
   42.8503  -45.8190    5.7079 O   0  0  0  0  0  0  0  0  0  0  0  0
   42.5989  -45.9301    3.3916 N   0  0  0  0  0  0  0  0  0  0  0  0
   43.8436  -45.2511    3.1209 C   0  0  0  0  0  0  0  0  0  0  0  0
   44.4415  -45.6597    1.8414 C   0  0  0  0  0  0  0  0  0  0  0  0
   43.7662  -45.3956    0.6386 C   0  0  0  0  0  0  0  0  0  0  0  0
   44.3417  -45.7933   -0.5674 C   0  0  0  0  0  0  0  0  0  0  0  0
   45.5575  -46.4382   -0.5772 C   0  0  0  0  0  0  0  0  0  0  0  0
   46.2013  -46.6888    0.6126 C   0  0  0  0  0  0  0  0  0  0  0  0
   45.6500  -46.3016    1.8493 C   0  0  0  0  0  0  0  0  0  0  0  0
   46.4253  -46.6596    3.0449 C   0  0  0  0  0  0  0  0  0  0  0  0
   46.6736  -45.5559    3.9236 N   0  0  0  0  0  0  0  0  0  0  0  0
   47.2299  -44.3930    3.4388 C   0  0  0  0  0  0  0  0  0  0  0  0
   47.3290  -43.5286    4.4443 N   0  0  0  0  0  0  0  0  0  0  0  0
   46.8489  -44.1115    5.5626 C   0  0  0  0  0  0  0  0  0  0  0  0
   46.4689  -45.3364    5.1787 N   0  0  0  0  0  0  0  0  0  0  0  0
   40.5879  -46.6480    7.3218 C   0  0  0  0  0  0  0  0  0  0  0  0
  1  2  1  0  0  0  0
  2  3  2  0  0  0  0
  2  4  1  0  0  0  0
  4  5  1  0  0  0  0
  5  6  2  0  0  0  0
  6  7  1  0  0  0  0
  7  8  2  0  0  0  0
  8  9  1  0  0  0  0
  9 10  1  0  0  0  0
  9 27  2  0  0  0  0
 10 11  1  0  0  0  0
 11 12  2  0  0  0  0
 11 13  1  0  0  0  0
 13 14  1  0  0  0  0
 14 15  1  0  0  0  0
 15 16  2  0  0  0  0
 16 17  1  0  0  0  0
 17 18  2  0  0  0  0
 18 19  1  0  0  0  0
 19 20  2  0  0  0  0
 20 21  1  0  0  0  0
 20 15  1  0  0  0  0
 21 22  1  0  0  0  0
 22 23  1  0  0  0  0
 23 24  2  0  0  0  0
 24 25  1  0  0  0  0
 25 26  2  0  0  0  0
 26 22  1  0  0  0  0
 27  5  1  0  0  0  0
M  END
>  <CHROM.1>
-165.85864806,-159.67331504,151.14059323,63.60553441,-53.59474646,-52.37168374
43.15088543,-45.99340913,5.07834863,-2.34449050,-0.45005744,-1.83624413

>  <Name>
design_17

>  <RI>
0

>  <Rbt.Current_Directory>
/home/ziqiaoxu/icml18-jtnn/VAEdesign

>  <Rbt.Executable>
rbdock ($Id: //depot/dev/client3/rdock/2013.1/src/exe/rbdock.cxx#4 $)

>  <Rbt.Library>
libRbt.so (2013.1, Build901 2013/11/27)

>  <Rbt.Parameter_File>
/export/apps/rDock/src/rDock_2013.1_src//data/scripts/dock.prm

>  <Rbt.Receptor>
/home/ziqiaoxu/icml18-jtnn/VAEdesign/targets/RdRp-SARS-CoV-2/pocket_docking.prm

>  <SCORE>
-23.8409

>  <SCORE.INTER>
-24.2476

>  <SCORE.INTER.CONST>
1

>  <SCORE.INTER.POLAR>
-2.78164

>  <SCORE.INTER.REPUL>
0.000179937

>  <SCORE.INTER.ROT>
6

>  <SCORE.INTER.VDW>
-26.1909

>  <SCORE.INTER.norm>
-0.898059

>  <SCORE.INTRA>
0.406711

>  <SCORE.INTRA.DIHEDRAL>
1.0614

>  <SCORE.INTRA.DIHEDRAL.0>
6.28052

>  <SCORE.INTRA.POLAR>
0

>  <SCORE.INTRA.POLAR.0>
0

>  <SCORE.INTRA.REPUL>
0.0231936

>  <SCORE.INTRA.REPUL.0>
0

>  <SCORE.INTRA.VDW>
-0.239955

>  <SCORE.INTRA.VDW.0>
-1.87238

>  <SCORE.INTRA.norm>
0.0150634

>  <SCORE.RESTR>
0

>  <SCORE.RESTR.CAVITY>
0

>  <SCORE.RESTR.norm>
0

>  <SCORE.SYSTEM>
0

>  <SCORE.SYSTEM.CONST>
0

>  <SCORE.SYSTEM.DIHEDRAL>
0

>  <SCORE.SYSTEM.norm>
0

>  <SCORE.heavy>
27

>  <SCORE.norm>
-0.882996

$$$$
design_5
 OpenBabel05252019093D

 23 25  0  0  0  0  0  0  0  0999 V2000
   43.6571  -45.9240   -0.7892 N   0  0  0  0  0  0  0  0  0  0  0  0
   44.8105  -46.3201   -0.0770 C   0  0  0  0  0  0  0  0  0  0  0  0
   45.7635  -46.8571   -0.6769 O   0  0  0  0  0  0  0  0  0  0  0  0
   44.8886  -46.1030    1.3535 C   0  0  0  0  0  0  0  0  0  0  0  0
   43.9038  -45.4848    2.0779 C   0  0  0  0  0  0  0  0  0  0  0  0
   43.9925  -45.2833    3.4517 C   0  0  0  0  0  0  0  0  0  0  0  0
   45.0855  -45.7025    4.1436 C   0  0  0  0  0  0  0  0  0  0  0  0
   45.2377  -45.5497    5.5397 N   0  0  0  0  0  0  0  0  0  0  0  0
   44.4717  -44.7381    6.3610 C   0  0  0  0  0  0  0  0  0  0  0  0
   43.5199  -44.0209    5.9737 O   0  0  0  0  0  0  0  0  0  0  0  0
   44.8273  -44.7315    7.8340 C   0  0  0  0  0  0  0  0  0  0  0  0
   43.7959  -43.9523    8.6050 C   0  0  0  0  0  0  0  0  0  0  0  0
   42.5571  -44.8134    8.6229 C   0  0  0  0  0  0  0  0  0  0  0  0
   42.2139  -45.6969    7.7150 N   0  0  0  0  0  0  0  0  0  0  0  0
   41.0975  -46.3833    7.8581 C   0  0  0  0  0  0  0  0  0  0  0  0
   40.6055  -47.3619    6.9642 C   0  0  0  0  0  0  0  0  0  0  0  0
   39.4244  -47.9911    7.2525 C   0  0  0  0  0  0  0  0  0  0  0  0
   38.6495  -47.7505    8.3663 C   0  0  0  0  0  0  0  0  0  0  0  0
   39.1448  -46.7907    9.2303 C   0  0  0  0  0  0  0  0  0  0  0  0
   40.3494  -46.1250    8.9701 C   0  0  0  0  0  0  0  0  0  0  0  0
   41.2790  -44.9203    9.7472 S   0  0  0  0  0  0  0  0  0  0  0  0
   46.1046  -46.3389    3.4109 C   0  0  0  0  0  0  0  0  0  0  0  0
   45.9882  -46.5195    2.0764 C   0  0  0  0  0  0  0  0  0  0  0  0
  1  2  1  0  0  0  0
  2  3  2  0  0  0  0
  2  4  1  0  0  0  0
  4  5  2  0  0  0  0
  5  6  1  0  0  0  0
  6  7  2  0  0  0  0
  7  8  1  0  0  0  0
  7 22  1  0  0  0  0
  8  9  1  0  0  0  0
  9 10  2  0  0  0  0
  9 11  1  0  0  0  0
 11 12  1  0  0  0  0
 12 13  1  0  0  0  0
 13 14  2  0  0  0  0
 14 15  1  0  0  0  0
 15 16  2  0  0  0  0
 16 17  1  0  0  0  0
 17 18  2  0  0  0  0
 18 19  1  0  0  0  0
 19 20  2  0  0  0  0
 20 21  1  0  0  0  0
 20 15  1  0  0  0  0
 21 13  1  0  0  0  0
 22 23  2  0  0  0  0
 23  4  1  0  0  0  0
M  END
>  <CHROM.1>
-2.02556334,-14.06372665,-172.49144367,72.21032476,-28.04256866,43.04227846
-45.81274950,5.56605370,1.01317012,-0.47448945,-1.87364444

>  <Name>
design_5

>  <RI>
0

>  <Rbt.Current_Directory>
/home/ziqiaoxu/icml18-jtnn/VAEdesign

>  <Rbt.Executable>
rbdock ($Id: //depot/dev/client3/rdock/2013.1/src/exe/rbdock.cxx#4 $)

>  <Rbt.Library>
libRbt.so (2013.1, Build901 2013/11/27)

>  <Rbt.Parameter_File>
/export/apps/rDock/src/rDock_2013.1_src//data/scripts/dock.prm

>  <Rbt.Receptor>
/home/ziqiaoxu/icml18-jtnn/VAEdesign/targets/RdRp-SARS-CoV-2/pocket_docking.prm

>  <SCORE>
-21.421

>  <SCORE.INTER>
-22.0799

>  <SCORE.INTER.CONST>
1

>  <SCORE.INTER.POLAR>
-1.85048

>  <SCORE.INTER.REPUL>
0

>  <SCORE.INTER.ROT>
5

>  <SCORE.INTER.VDW>
-26.1883

>  <SCORE.INTER.norm>
-0.959997

>  <SCORE.INTRA>
0.658936

>  <SCORE.INTRA.DIHEDRAL>
0.347275

>  <SCORE.INTRA.DIHEDRAL.0>
3.38831

>  <SCORE.INTRA.POLAR>
0

>  <SCORE.INTRA.POLAR.0>
0

>  <SCORE.INTRA.REPUL>
0

>  <SCORE.INTRA.REPUL.0>
0

>  <SCORE.INTRA.VDW>
0.485298

>  <SCORE.INTRA.VDW.0>
0.442782

>  <SCORE.INTRA.norm>
0.0286494

>  <SCORE.RESTR>
0

>  <SCORE.RESTR.CAVITY>
0

>  <SCORE.RESTR.norm>
0

>  <SCORE.SYSTEM>
0

>  <SCORE.SYSTEM.CONST>
0

>  <SCORE.SYSTEM.DIHEDRAL>
0

>  <SCORE.SYSTEM.norm>
0

>  <SCORE.heavy>
23

>  <SCORE.norm>
-0.931347

$$$$
design_11
 OpenBabel05252019093D

 25 27  0  0  0  0  0  0  0  0999 V2000
   39.3492  -49.2280    6.7792 C   0  0  0  0  0  0  0  0  0  0  0  0
   39.1338  -47.7460    6.4978 C   0  0  2  0  0  0  0  0  0  0  0  0
   39.7804  -47.3250    5.2875 N   0  0  0  0  0  0  0  0  0  0  0  0
   39.6698  -45.9926    4.8368 C   0  0  0  0  0  0  0  0  0  0  0  0
   38.9787  -45.1820    5.5399 O   0  0  0  0  0  0  0  0  0  0  0  0
   40.3162  -45.5920    3.6370 N   0  0  0  0  0  0  0  0  0  0  0  0
   40.2835  -44.2577    3.1007 C   0  0  0  0  0  0  0  0  0  0  0  0
   41.3920  -43.9292    2.2112 C   0  0  0  0  0  0  0  0  0  0  0  0
   42.3943  -44.7282    2.1801 O   0  0  0  0  0  0  0  0  0  0  0  0
   41.4427  -42.7988    1.3896 N   0  0  0  0  0  0  0  0  0  0  0  0
   42.5740  -42.5183    0.5095 C   0  0  0  0  0  0  0  0  0  0  0  0
   43.1178  -41.1620    0.4301 C   0  0  0  0  0  0  0  0  0  0  0  0
   43.8907  -42.2460    1.2148 C   0  0  0  0  0  0  0  0  0  0  0  0
   39.7081  -46.9945    7.6489 C   0  0  0  0  0  0  0  0  0  0  0  0
   38.9799  -46.9580    8.8153 C   0  0  0  0  0  0  0  0  0  0  0  0
   39.5016  -46.2650    9.8859 C   0  0  0  0  0  0  0  0  0  0  0  0
   40.7291  -45.6223    9.7855 C   0  0  0  0  0  0  0  0  0  0  0  0
   41.4646  -45.6551    8.6177 C   0  0  0  0  0  0  0  0  0  0  0  0
   42.7566  -44.9938    8.4708 C   0  0  0  0  0  0  0  0  0  0  0  0
   43.5571  -45.1512    7.3558 C   0  0  0  0  0  0  0  0  0  0  0  0
   44.7434  -44.5217    7.2611 N   0  0  0  0  0  0  0  0  0  0  0  0
   45.2044  -43.7168    8.2358 C   0  0  0  0  0  0  0  0  0  0  0  0
   44.4303  -43.5588    9.3245 N   0  0  0  0  0  0  0  0  0  0  0  0
   43.2350  -44.1670    9.4670 C   0  0  0  0  0  0  0  0  0  0  0  0
   40.9264  -46.3536    7.5569 C   0  0  0  0  0  0  0  0  0  0  0  0
  2  1  1  1  0  0  0
  2  3  1  0  0  0  0
  2 14  1  0  0  0  0
  3  4  1  0  0  0  0
  4  5  2  0  0  0  0
  4  6  1  0  0  0  0
  6  7  1  0  0  0  0
  7  8  1  0  0  0  0
  8  9  2  0  0  0  0
  8 10  1  0  0  0  0
 10 11  1  0  0  0  0
 11 12  1  0  0  0  0
 12 13  1  0  0  0  0
 13 11  1  0  0  0  0
 14 15  2  0  0  0  0
 15 16  1  0  0  0  0
 16 17  2  0  0  0  0
 17 18  1  0  0  0  0
 18 19  1  0  0  0  0
 18 25  2  0  0  0  0
 19 20  2  0  0  0  0
 20 21  1  0  0  0  0
 21 22  2  0  0  0  0
 22 23  1  0  0  0  0
 23 24  2  0  0  0  0
 24 19  1  0  0  0  0
 25 14  1  0  0  0  0
M  END
>  <CHROM.1>
178.41267010,156.64153325,-12.53266066,-136.08576766,-76.86754252,172.57004306
41.49249006,-45.05951806,5.73542803,1.80115224,0.63206045,1.87213726

>  <Name>
design_11

>  <RI>
0

>  <Rbt.Current_Directory>
/home/ziqiaoxu/icml18-jtnn/VAEdesign

>  <Rbt.Executable>
rbdock ($Id: //depot/dev/client3/rdock/2013.1/src/exe/rbdock.cxx#4 $)

>  <Rbt.Library>
libRbt.so (2013.1, Build901 2013/11/27)

>  <Rbt.Parameter_File>
/export/apps/rDock/src/rDock_2013.1_src//data/scripts/dock.prm

>  <Rbt.Receptor>
/home/ziqiaoxu/icml18-jtnn/VAEdesign/targets/RdRp-SARS-CoV-2/pocket_docking.prm

>  <SCORE>
-20.7922

>  <SCORE.INTER>
-22.2374

>  <SCORE.INTER.CONST>
1

>  <SCORE.INTER.POLAR>
-2.19125

>  <SCORE.INTER.REPUL>
0

>  <SCORE.INTER.ROT>
6

>  <SCORE.INTER.VDW>
-26.1871

>  <SCORE.INTER.norm>
-0.889494

>  <SCORE.INTRA>
1.44514

>  <SCORE.INTRA.DIHEDRAL>
-1.21715

>  <SCORE.INTRA.DIHEDRAL.0>
6.94387

>  <SCORE.INTRA.POLAR>
0

>  <SCORE.INTRA.POLAR.0>
0

>  <SCORE.INTRA.REPUL>
0

>  <SCORE.INTRA.REPUL.0>
0

>  <SCORE.INTRA.VDW>
2.05371

>  <SCORE.INTRA.VDW.0>
-1.66509

>  <SCORE.INTRA.norm>
0.0578055

>  <SCORE.RESTR>
0

>  <SCORE.RESTR.CAVITY>
0

>  <SCORE.RESTR.norm>
0

>  <SCORE.SYSTEM>
0

>  <SCORE.SYSTEM.CONST>
0

>  <SCORE.SYSTEM.DIHEDRAL>
0

>  <SCORE.SYSTEM.norm>
0

>  <SCORE.heavy>
25

>  <SCORE.norm>
-0.831689

$$$$
design_0
 OpenBabel05252019093D

 24 26  0  0  0  0  0  0  0  0999 V2000
   40.4669  -38.7600    3.4721 C   0  0  0  0  0  0  0  0  0  0  0  0
   40.3583  -39.1243    4.8998 C   0  0  0  0  0  0  0  0  0  0  0  0
   40.4304  -38.1449    5.8924 C   0  0  0  0  0  0  0  0  0  0  0  0
   40.3093  -38.4931    7.2435 C   0  0  0  0  0  0  0  0  0  0  0  0
   40.1144  -39.7837    7.6587 C   0  0  0  0  0  0  0  0  0  0  0  0
   39.9857  -40.2009    9.0939 C   0  0  0  0  0  0  0  0  0  0  0  0
   40.4348  -41.5317    9.2146 N   0  0  0  0  0  0  0  0  0  0  0  0
   39.7680  -42.5204   10.0670 C   0  0  0  0  0  0  0  0  0  0  0  0
   38.7794  -42.0937   10.6324 O   0  0  0  0  0  0  0  0  0  0  0  0
   40.2870  -43.7888   10.1406 N   0  0  0  0  0  0  0  0  0  0  0  0
   40.7876  -45.0541   10.2224 C   0  0  0  0  0  0  0  0  0  0  0  0
   40.3753  -46.0433    9.2288 C   0  0  0  0  0  0  0  0  0  0  0  0
   39.1461  -46.6921    9.2880 C   0  0  0  0  0  0  0  0  0  0  0  0
   38.7999  -47.5476    8.2289 C   0  0  0  0  0  0  0  0  0  0  0  0
   39.6739  -47.7195    7.1927 C   0  0  0  0  0  0  0  0  0  0  0  0
   40.8255  -47.0796    7.2022 N   0  0  0  0  0  0  0  0  0  0  0  0
   41.2560  -46.2408    8.1533 C   0  0  0  0  0  0  0  0  0  0  0  0
   42.5092  -45.5879    8.0768 N   0  0  0  0  0  0  0  0  0  0  0  0
   43.3416  -45.7746    7.0186 C   0  0  0  0  0  0  0  0  0  0  0  0
   44.5361  -45.0501    7.1980 C   0  0  0  0  0  0  0  0  0  0  0  0
   44.3684  -44.4295    8.4276 C   0  0  0  0  0  0  0  0  0  0  0  0
   43.1733  -44.7931    8.8561 N   0  0  0  0  0  0  0  0  0  0  0  0
   40.0344  -40.7689    6.6570 C   0  0  0  0  0  0  0  0  0  0  0  0
   40.1568  -40.4324    5.3098 C   0  0  0  0  0  0  0  0  0  0  0  0
  1  2  1  0  0  0  0
  2  3  2  0  0  0  0
  3  4  1  0  0  0  0
  4  5  2  0  0  0  0
  5  6  1  0  0  0  0
  5 23  1  0  0  0  0
  6  7  1  0  0  0  0
  7  8  1  0  0  0  0
  8  9  2  0  0  0  0
  8 10  1  0  0  0  0
 10 11  1  0  0  0  0
 11 12  1  0  0  0  0
 12 13  2  0  0  0  0
 13 14  1  0  0  0  0
 14 15  2  0  0  0  0
 15 16  1  0  0  0  0
 16 17  2  0  0  0  0
 17 18  1  0  0  0  0
 17 12  1  0  0  0  0
 18 19  1  0  0  0  0
 19 20  2  0  0  0  0
 20 21  1  0  0  0  0
 21 22  2  0  0  0  0
 22 18  1  0  0  0  0
 23 24  2  0  0  0  0
 24  2  1  0  0  0  0
M  END
>  <CHROM.1>
-151.98266851,-140.05289990,82.75876299,-78.40785570,-178.99566128,40.81818443
-43.22033018,7.92119649,-1.74526065,-0.83432964,2.70351820

>  <Name>
design_0

>  <RI>
0

>  <Rbt.Current_Directory>
/home/ziqiaoxu/icml18-jtnn/VAEdesign

>  <Rbt.Executable>
rbdock ($Id: //depot/dev/client3/rdock/2013.1/src/exe/rbdock.cxx#4 $)

>  <Rbt.Library>
libRbt.so (2013.1, Build901 2013/11/27)

>  <Rbt.Parameter_File>
/export/apps/rDock/src/rDock_2013.1_src//data/scripts/dock.prm

>  <Rbt.Receptor>
/home/ziqiaoxu/icml18-jtnn/VAEdesign/targets/RdRp-SARS-CoV-2/pocket_docking.prm

>  <SCORE>
-22.561

>  <SCORE.INTER>
-19.2534

>  <SCORE.INTER.CONST>
1

>  <SCORE.INTER.POLAR>
-1.0198

>  <SCORE.INTER.REPUL>
0

>  <SCORE.INTER.ROT>
5

>  <SCORE.INTER.VDW>
-26.1861

>  <SCORE.INTER.norm>
-0.802226

>  <SCORE.INTRA>
-3.30756

>  <SCORE.INTRA.DIHEDRAL>
-1.05755

>  <SCORE.INTRA.DIHEDRAL.0>
4.38481

>  <SCORE.INTRA.POLAR>
0

>  <SCORE.INTRA.POLAR.0>
0

>  <SCORE.INTRA.REPUL>
0

>  <SCORE.INTRA.REPUL.0>
0

>  <SCORE.INTRA.VDW>
-2.77878

>  <SCORE.INTRA.VDW.0>
1.88728

>  <SCORE.INTRA.norm>
-0.137815

>  <SCORE.RESTR>
0

>  <SCORE.RESTR.CAVITY>
0

>  <SCORE.RESTR.norm>
0

>  <SCORE.SYSTEM>
0

>  <SCORE.SYSTEM.CONST>
0

>  <SCORE.SYSTEM.DIHEDRAL>
0

>  <SCORE.SYSTEM.norm>
0

>  <SCORE.heavy>
24

>  <SCORE.norm>
-0.940041

$$$$
design_15
 OpenBabel05252019093D

 26 28  0  0  0  0  0  0  0  0999 V2000
   39.8100  -46.3253   10.5074 N   0  0  0  0  0  0  0  0  0  0  0  0
   39.8601  -45.7958    9.2002 C   0  0  0  0  0  0  0  0  0  0  0  0
   39.8849  -44.5564    9.0427 O   0  0  0  0  0  0  0  0  0  0  0  0
   39.8833  -46.6619    8.0379 C   0  0  0  0  0  0  0  0  0  0  0  0
   39.1781  -47.8611    8.0673 C   0  0  0  0  0  0  0  0  0  0  0  0
   39.1739  -48.7073    6.9936 C   0  0  0  0  0  0  0  0  0  0  0  0
   39.8863  -48.3608    5.8564 C   0  0  0  0  0  0  0  0  0  0  0  0
   40.5957  -47.2045    5.7638 C   0  0  0  0  0  0  0  0  0  0  0  0
   41.3621  -46.7757    4.6593 N   0  0  0  0  0  0  0  0  0  0  0  0
   42.2365  -45.6612    4.6929 C   0  0  0  0  0  0  0  0  0  0  0  0
   42.4357  -44.9250    5.6785 O   0  0  0  0  0  0  0  0  0  0  0  0
   42.9886  -45.3276    3.4542 C   0  0  0  0  0  0  0  0  0  0  0  0
   42.0909  -44.8252    2.3743 C   0  0  0  0  0  0  0  0  0  0  0  0
   42.7765  -44.4172    1.1338 C   0  0  0  0  0  0  0  0  0  0  0  0
   43.1842  -45.1908    0.2355 O   0  0  0  0  0  0  0  0  0  0  0  0
   43.0319  -42.9789    0.8748 C   0  0  0  0  0  0  0  0  0  0  0  0
   42.1042  -42.0108    1.2470 C   0  0  0  0  0  0  0  0  0  0  0  0
   42.3950  -40.6904    0.9791 C   0  0  0  0  0  0  0  0  0  0  0  0
   43.5679  -40.3319    0.3611 C   0  0  0  0  0  0  0  0  0  0  0  0
   44.4601  -41.3128    0.0076 C   0  0  0  0  0  0  0  0  0  0  0  0
   44.2078  -42.6217    0.2552 C   0  0  0  0  0  0  0  0  0  0  0  0
   45.7135  -40.8457   -0.6591 C   0  0  0  0  0  0  0  0  0  0  0  0
   45.2958  -39.8355   -1.6987 C   0  0  0  0  0  0  0  0  0  0  0  0
   44.5967  -38.6443   -1.1504 C   0  0  0  0  0  0  0  0  0  0  0  0
   43.8096  -38.8912    0.1060 C   0  0  0  0  0  0  0  0  0  0  0  0
   40.5663  -46.3650    6.9029 C   0  0  0  0  0  0  0  0  0  0  0  0
  1  2  1  0  0  0  0
  2  3  2  0  0  0  0
  2  4  1  0  0  0  0
  4  5  2  0  0  0  0
  5  6  1  0  0  0  0
  6  7  2  0  0  0  0
  7  8  1  0  0  0  0
  8  9  1  0  0  0  0
  8 26  2  0  0  0  0
  9 10  1  0  0  0  0
 10 11  2  0  0  0  0
 10 12  1  0  0  0  0
 12 13  1  0  0  0  0
 13 14  1  0  0  0  0
 14 15  2  0  0  0  0
 14 16  1  0  0  0  0
 16 17  2  0  0  0  0
 17 18  1  0  0  0  0
 18 19  2  0  0  0  0
 19 20  1  0  0  0  0
 20 21  2  0  0  0  0
 20 22  1  0  0  0  0
 21 16  1  0  0  0  0
 22 23  1  0  0  0  0
 23 24  1  0  0  0  0
 24 25  1  0  0  0  0
 25 19  1  0  0  0  0
 26  4  1  0  0  0  0
M  END
>  <CHROM.1>
34.35740600,-170.25862115,68.57827876,177.40616372,79.74861485,-36.90543395
42.12279283,-44.12542163,3.61693154,2.95948105,-1.17474098,-2.69910834

>  <Name>
design_15

>  <RI>
0

>  <Rbt.Current_Directory>
/home/ziqiaoxu/icml18-jtnn/VAEdesign

>  <Rbt.Executable>
rbdock ($Id: //depot/dev/client3/rdock/2013.1/src/exe/rbdock.cxx#4 $)

>  <Rbt.Library>
libRbt.so (2013.1, Build901 2013/11/27)

>  <Rbt.Parameter_File>
/export/apps/rDock/src/rDock_2013.1_src//data/scripts/dock.prm

>  <Rbt.Receptor>
/home/ziqiaoxu/icml18-jtnn/VAEdesign/targets/RdRp-SARS-CoV-2/pocket_docking.prm

>  <SCORE>
-22.9712

>  <SCORE.INTER>
-25.4322

>  <SCORE.INTER.CONST>
1

>  <SCORE.INTER.POLAR>
-3.3507

>  <SCORE.INTER.REPUL>
0.148076

>  <SCORE.INTER.ROT>
6

>  <SCORE.INTER.VDW>
-26.1803

>  <SCORE.INTER.norm>
-0.978163

>  <SCORE.INTRA>
2.46102

>  <SCORE.INTRA.DIHEDRAL>
8.99075

>  <SCORE.INTRA.DIHEDRAL.0>
3.57156

>  <SCORE.INTRA.POLAR>
0

>  <SCORE.INTRA.POLAR.0>
0

>  <SCORE.INTRA.REPUL>
0

>  <SCORE.INTRA.REPUL.0>
0

>  <SCORE.INTRA.VDW>
-2.03435

>  <SCORE.INTRA.VDW.0>
1.875

>  <SCORE.INTRA.norm>
0.0946548

>  <SCORE.RESTR>
0

>  <SCORE.RESTR.CAVITY>
0

>  <SCORE.RESTR.norm>
0

>  <SCORE.SYSTEM>
0

>  <SCORE.SYSTEM.CONST>
0

>  <SCORE.SYSTEM.DIHEDRAL>
0

>  <SCORE.SYSTEM.norm>
0

>  <SCORE.heavy>
26

>  <SCORE.norm>
-0.883508

$$$$
design_3
 OpenBabel05252019093D

 26 28  0  0  0  0  0  0  0  0999 V2000
   35.7248  -42.0390    5.8399 C   0  0  0  0  0  0  0  0  0  0  0  0
   36.0546  -43.4879    5.7932 C   0  0  0  0  0  0  0  0  0  0  0  0
   35.2788  -44.4981    5.3524 N   0  0  0  0  0  0  0  0  0  0  0  0
   35.9098  -45.6480    5.4652 N   0  0  0  0  0  0  0  0  0  0  0  0
   37.1162  -45.4206    5.9832 C   0  0  0  0  0  0  0  0  0  0  0  0
   38.1606  -46.4248    6.2810 C   0  0  0  0  0  0  0  0  0  0  0  0
   37.9359  -47.7484    5.9980 C   0  0  0  0  0  0  0  0  0  0  0  0
   38.9154  -48.6769    6.2810 C   0  0  0  0  0  0  0  0  0  0  0  0
   40.1291  -48.2861    6.8505 C   0  0  0  0  0  0  0  0  0  0  0  0
   40.3660  -46.9793    7.1362 C   0  0  0  0  0  0  0  0  0  0  0  0
   41.6045  -46.4394    7.7398 C   0  0  0  0  0  0  0  0  0  0  0  0
   42.6134  -46.1053    6.7704 N   0  0  0  0  0  0  0  0  0  0  0  0
   43.7999  -45.4244    7.1197 C   0  0  0  0  0  0  0  0  0  0  0  0
   43.9499  -45.1155    8.3239 O   0  0  0  0  0  0  0  0  0  0  0  0
   44.8294  -45.0795    6.1453 C   0  0  0  0  0  0  0  0  0  0  0  0
   45.9966  -44.4676    6.4750 C   0  0  0  0  0  0  0  0  0  0  0  0
   46.9114  -44.1778    5.4879 C   0  0  0  0  0  0  0  0  0  0  0  0
   46.6838  -44.4863    4.1840 C   0  0  0  0  0  0  0  0  0  0  0  0
   45.4813  -45.1224    3.8064 C   0  0  0  0  0  0  0  0  0  0  0  0
   45.2575  -45.4291    2.5025 O   0  0  0  0  0  0  0  0  0  0  0  0
   44.3546  -44.8102    1.6619 C   0  0  0  0  0  0  0  0  0  0  0  0
   42.9232  -45.1664    2.0915 C   0  0  0  0  0  0  0  0  0  0  0  0
   44.5890  -45.3202    0.2458 C   0  0  0  0  0  0  0  0  0  0  0  0
   44.5996  -45.3944    4.8047 C   0  0  0  0  0  0  0  0  0  0  0  0
   39.3625  -46.0548    6.8425 C   0  0  0  0  0  0  0  0  0  0  0  0
   37.2074  -44.0954    6.1856 N   0  0  0  0  0  0  0  0  0  0  0  0
  1  2  1  0  0  0  0
  2  3  2  0  0  0  0
  3  4  1  0  0  0  0
  4  5  1  0  0  0  0
  5  6  1  0  0  0  0
  5 26  2  0  0  0  0
  6  7  2  0  0  0  0
  7  8  1  0  0  0  0
  8  9  2  0  0  0  0
  9 10  1  0  0  0  0
 10 11  1  0  0  0  0
 10 25  2  0  0  0  0
 11 12  1  0  0  0  0
 12 13  1  0  0  0  0
 13 14  2  0  0  0  0
 13 15  1  0  0  0  0
 15 16  2  0  0  0  0
 16 17  1  0  0  0  0
 17 18  2  0  0  0  0
 18 19  1  0  0  0  0
 19 20  1  0  0  0  0
 19 24  2  0  0  0  0
 20 21  1  0  0  0  0
 21 22  1  0  0  0  0
 21 23  1  0  0  0  0
 24 15  1  0  0  0  0
 25  6  1  0  0  0  0
 26  2  1  0  0  0  0
M  END
>  <CHROM.1>
1.14980009,87.90000901,171.96171612,-177.55501257,-108.60792571,-69.92454879
41.38226504,-45.43772721,5.39059569,2.92590660,-0.04924019,1.89574262

>  <Name>
design_3

>  <RI>
0

>  <Rbt.Current_Directory>
/home/ziqiaoxu/icml18-jtnn/VAEdesign

>  <Rbt.Executable>
rbdock ($Id: //depot/dev/client3/rdock/2013.1/src/exe/rbdock.cxx#4 $)

>  <Rbt.Library>
libRbt.so (2013.1, Build901 2013/11/27)

>  <Rbt.Parameter_File>
/export/apps/rDock/src/rDock_2013.1_src//data/scripts/dock.prm

>  <Rbt.Receptor>
/home/ziqiaoxu/icml18-jtnn/VAEdesign/targets/RdRp-SARS-CoV-2/pocket_docking.prm

>  <SCORE>
-18.8973

>  <SCORE.INTER>
-17.8941

>  <SCORE.INTER.CONST>
1

>  <SCORE.INTER.POLAR>
-0.938897

>  <SCORE.INTER.REPUL>
0.0156764

>  <SCORE.INTER.ROT>
6

>  <SCORE.INTER.VDW>
-26.1802

>  <SCORE.INTER.norm>
-0.688235

>  <SCORE.INTRA>
-1.0032

>  <SCORE.INTRA.DIHEDRAL>
-2.48308

>  <SCORE.INTRA.DIHEDRAL.0>
9.22037

>  <SCORE.INTRA.POLAR>
0

>  <SCORE.INTRA.POLAR.0>
0

>  <SCORE.INTRA.REPUL>
0

>  <SCORE.INTRA.REPUL.0>
0

>  <SCORE.INTRA.VDW>
0.23834

>  <SCORE.INTRA.VDW.0>
-1.55161

>  <SCORE.INTRA.norm>
-0.0385847

>  <SCORE.RESTR>
0

>  <SCORE.RESTR.CAVITY>
0

>  <SCORE.RESTR.norm>
0

>  <SCORE.SYSTEM>
0

>  <SCORE.SYSTEM.CONST>
0

>  <SCORE.SYSTEM.DIHEDRAL>
0

>  <SCORE.SYSTEM.norm>
0

>  <SCORE.heavy>
26

>  <SCORE.norm>
-0.726819

$$$$
design_13
 OpenBabel05252019093D

 23 24  0  0  0  0  0  0  0  0999 V2000
   40.0035  -37.3369    5.4912 C   0  0  0  0  0  0  0  0  0  0  0  0
   40.0144  -38.4360    6.4808 C   0  0  0  0  0  0  0  0  0  0  0  0
   39.6552  -39.7012    6.0993 C   0  0  0  0  0  0  0  0  0  0  0  0
   39.6630  -40.7470    7.0124 C   0  0  0  0  0  0  0  0  0  0  0  0
   40.0274  -40.5477    8.3104 C   0  0  0  0  0  0  0  0  0  0  0  0
   40.0663  -41.5029    9.3048 N   0  0  0  0  0  0  0  0  0  0  0  0
   40.0934  -42.4044   10.2751 C   0  0  0  0  0  0  0  0  0  0  0  0
   39.6786  -42.2187   11.4848 O   0  0  0  0  0  0  0  0  0  0  0  0
   40.6157  -43.8359   10.1578 C   0  0  0  0  0  0  0  0  0  0  0  0
   39.5725  -44.7986    9.9539 N   0  0  0  0  0  0  0  0  0  0  0  0
   39.6662  -45.8356    9.0036 C   0  0  0  0  0  0  0  0  0  0  0  0
   40.7212  -45.9298    8.3338 O   0  0  0  0  0  0  0  0  0  0  0  0
   38.6224  -46.7460    8.7900 N   0  0  0  0  0  0  0  0  0  0  0  0
   38.6060  -47.8238    7.8449 C   0  0  0  0  0  0  0  0  0  0  0  0
   38.7744  -47.3032    6.4512 C   0  0  0  0  0  0  0  0  0  0  0  0
   37.8525  -46.1843    6.1502 C   0  0  0  0  0  0  0  0  0  0  0  0
   38.2532  -44.8520    6.3201 C   0  0  0  0  0  0  0  0  0  0  0  0
   37.3809  -43.8198    6.0571 C   0  0  0  0  0  0  0  0  0  0  0  0
   36.1087  -44.0761    5.6247 C   0  0  0  0  0  0  0  0  0  0  0  0
   35.7215  -45.3461    5.4621 N   0  0  0  0  0  0  0  0  0  0  0  0
   36.5684  -46.4013    5.7168 C   0  0  0  0  0  0  0  0  0  0  0  0
   40.3908  -39.2186    8.6511 C   0  0  0  0  0  0  0  0  0  0  0  0
   40.3950  -38.1783    7.7916 C   0  0  0  0  0  0  0  0  0  0  0  0
  1  2  1  0  0  0  0
  2  3  2  0  0  0  0
  3  4  1  0  0  0  0
  4  5  2  0  0  0  0
  5  6  1  0  0  0  0
  5 22  1  0  0  0  0
  6  7  1  0  0  0  0
  7  8  2  0  0  0  0
  7  9  1  0  0  0  0
  9 10  1  0  0  0  0
 10 11  1  0  0  0  0
 11 12  2  0  0  0  0
 11 13  1  0  0  0  0
 13 14  1  0  0  0  0
 14 15  1  0  0  0  0
 15 16  1  0  0  0  0
 16 17  2  0  0  0  0
 17 18  1  0  0  0  0
 18 19  2  0  0  0  0
 19 20  1  0  0  0  0
 20 21  2  0  0  0  0
 21 16  1  0  0  0  0
 22 23  2  0  0  0  0
 23  2  1  0  0  0  0
M  END
>  <CHROM.1>
-136.95527803,-98.32612685,135.48409444,-59.81766042,-49.59215959,93.83002154
39.07427274,-43.22811260,7.74383144,1.06173941,-1.00392139,-0.39542138

>  <Name>
design_13

>  <RI>
0

>  <Rbt.Current_Directory>
/home/ziqiaoxu/icml18-jtnn/VAEdesign

>  <Rbt.Executable>
rbdock ($Id: //depot/dev/client3/rdock/2013.1/src/exe/rbdock.cxx#4 $)

>  <Rbt.Library>
libRbt.so (2013.1, Build901 2013/11/27)

>  <Rbt.Parameter_File>
/export/apps/rDock/src/rDock_2013.1_src//data/scripts/dock.prm

>  <Rbt.Receptor>
/home/ziqiaoxu/icml18-jtnn/VAEdesign/targets/RdRp-SARS-CoV-2/pocket_docking.prm

>  <SCORE>
-20.5015

>  <SCORE.INTER>
-21.5029

>  <SCORE.INTER.CONST>
1

>  <SCORE.INTER.POLAR>
-1.97897

>  <SCORE.INTER.REPUL>
0

>  <SCORE.INTER.ROT>
6

>  <SCORE.INTER.VDW>
-26.1744

>  <SCORE.INTER.norm>
-0.93491

>  <SCORE.INTRA>
1.00146

>  <SCORE.INTRA.DIHEDRAL>
1.44024

>  <SCORE.INTRA.DIHEDRAL.0>
10.1318

>  <SCORE.INTRA.POLAR>
0

>  <SCORE.INTRA.POLAR.0>
0

>  <SCORE.INTRA.REPUL>
0

>  <SCORE.INTRA.REPUL.0>
0

>  <SCORE.INTRA.VDW>
0.281334

>  <SCORE.INTRA.VDW.0>
-1.9188

>  <SCORE.INTRA.norm>
0.0435415

>  <SCORE.RESTR>
0

>  <SCORE.RESTR.CAVITY>
0

>  <SCORE.RESTR.norm>
0

>  <SCORE.SYSTEM>
0

>  <SCORE.SYSTEM.CONST>
0

>  <SCORE.SYSTEM.DIHEDRAL>
0

>  <SCORE.SYSTEM.norm>
0

>  <SCORE.heavy>
23

>  <SCORE.norm>
-0.891369

$$$$
design_3
 OpenBabel05252019093D

 22 24  0  0  0  0  0  0  0  0999 V2000
   45.6169  -46.3468   -0.1949 C   0  0  0  0  0  0  0  0  0  0  0  0
   46.2514  -46.6123    1.1086 C   0  0  0  0  0  0  0  0  0  0  0  0
   47.3976  -47.4046    1.1597 C   0  0  0  0  0  0  0  0  0  0  0  0
   47.9962  -47.6595    2.3575 C   0  0  0  0  0  0  0  0  0  0  0  0
   47.4621  -47.1295    3.5183 C   0  0  0  0  0  0  0  0  0  0  0  0
   46.3261  -46.3374    3.5187 C   0  0  0  0  0  0  0  0  0  0  0  0
   45.7847  -45.7942    4.7401 C   0  0  0  0  0  0  0  0  0  0  0  0
   45.3168  -45.3523    5.7629 C   0  0  0  0  0  0  0  0  0  0  0  0
   44.7339  -44.8295    6.9993 C   0  0  0  0  0  0  0  0  0  0  0  0
   43.4604  -45.5805    7.1810 N   0  0  0  0  0  0  0  0  0  0  0  0
   42.7006  -45.2789    8.3057 C   0  0  0  0  0  0  0  0  0  0  0  0
   43.2011  -44.3728    9.0867 O   0  0  0  0  0  0  0  0  0  0  0  0
   41.4477  -45.8503    8.6983 C   0  0  0  0  0  0  0  0  0  0  0  0
   40.7947  -45.5756    9.8810 N   0  0  0  0  0  0  0  0  0  0  0  0
   39.6653  -46.2219    9.9497 N   0  0  0  0  0  0  0  0  0  0  0  0
   39.4864  -46.9657    8.8280 C   0  0  0  0  0  0  0  0  0  0  0  0
   38.4705  -47.7968    8.4269 C   0  0  0  0  0  0  0  0  0  0  0  0
   38.5445  -48.4263    7.2078 C   0  0  0  0  0  0  0  0  0  0  0  0
   39.6496  -48.1881    6.4392 C   0  0  0  0  0  0  0  0  0  0  0  0
   40.6783  -47.3581    6.8254 C   0  0  0  0  0  0  0  0  0  0  0  0
   40.6215  -46.7221    8.0413 C   0  0  0  0  0  0  0  0  0  0  0  0
   45.7406  -46.0955    2.2924 C   0  0  0  0  0  0  0  0  0  0  0  0
  1  2  1  0  0  0  0
  2  3  2  0  0  0  0
  3  4  1  0  0  0  0
  4  5  2  0  0  0  0
  5  6  1  0  0  0  0
  6  7  1  0  0  0  0
  6 22  2  0  0  0  0
  7  8  3  0  0  0  0
  8  9  1  0  0  0  0
  9 10  1  0  0  0  0
 10 11  1  0  0  0  0
 11 12  2  0  0  0  0
 11 13  1  0  0  0  0
 13 14  2  0  0  0  0
 14 15  1  0  0  0  0
 15 16  1  0  0  0  0
 16 17  2  0  0  0  0
 17 18  1  0  0  0  0
 18 19  2  0  0  0  0
 19 20  1  0  0  0  0
 20 21  2  0  0  0  0
 21 13  1  0  0  0  0
 21 16  1  0  0  0  0
 22  2  1  0  0  0  0
M  END
>  <CHROM.1>
-104.87829465,1.07613586,179.54619409,174.90756248,43.22272978,-46.42341244
5.95340501,0.69242128,-0.41293721,-2.02705147

>  <Name>
design_3

>  <RI>
0

>  <Rbt.Current_Directory>
/home/ziqiaoxu/icml18-jtnn/VAEdesign

>  <Rbt.Executable>
rbdock ($Id: //depot/dev/client3/rdock/2013.1/src/exe/rbdock.cxx#4 $)

>  <Rbt.Library>
libRbt.so (2013.1, Build901 2013/11/27)

>  <Rbt.Parameter_File>
/export/apps/rDock/src/rDock_2013.1_src//data/scripts/dock.prm

>  <Rbt.Receptor>
/home/ziqiaoxu/icml18-jtnn/VAEdesign/targets/RdRp-SARS-CoV-2/pocket_docking.prm

>  <SCORE>
-20.9739

>  <SCORE.INTER>
-20.2417

>  <SCORE.INTER.CONST>
1

>  <SCORE.INTER.POLAR>
-1.0198

>  <SCORE.INTER.REPUL>
0

>  <SCORE.INTER.ROT>
4

>  <SCORE.INTER.VDW>
-26.1744

>  <SCORE.INTER.norm>
-0.920079

>  <SCORE.INTRA>
-0.732179

>  <SCORE.INTRA.DIHEDRAL>
-1.04347

>  <SCORE.INTRA.DIHEDRAL.0>
2.36273

>  <SCORE.INTRA.POLAR>
0

>  <SCORE.INTRA.POLAR.0>
0

>  <SCORE.INTRA.REPUL>
0

>  <SCORE.INTRA.REPUL.0>
0

>  <SCORE.INTRA.VDW>
-0.210443

>  <SCORE.INTRA.VDW.0>
-0.931259

>  <SCORE.INTRA.norm>
-0.0332808

>  <SCORE.RESTR>
0

>  <SCORE.RESTR.CAVITY>
0

>  <SCORE.RESTR.norm>
0

>  <SCORE.SYSTEM>
0

>  <SCORE.SYSTEM.CONST>
0

>  <SCORE.SYSTEM.DIHEDRAL>
0

>  <SCORE.SYSTEM.norm>
0

>  <SCORE.heavy>
22

>  <SCORE.norm>
-0.95336

$$$$
design_9
 OpenBabel05252019093D

 23 25  0  0  0  0  0  0  0  0999 V2000
   39.6790  -48.3199    6.5945 C   0  0  0  0  0  0  0  0  0  0  0  0
   39.7838  -47.4303    7.7843 C   0  0  0  0  0  0  0  0  0  0  0  0
   39.0084  -47.4615    8.8803 N   0  0  0  0  0  0  0  0  0  0  0  0
   39.3573  -46.5310    9.7541 N   0  0  0  0  0  0  0  0  0  0  0  0
   40.3859  -45.8751    9.2152 C   0  0  0  0  0  0  0  0  0  0  0  0
   41.0875  -44.7231    9.8424 C   0  0  0  0  0  0  0  0  0  0  0  0
   40.3176  -43.6664   10.1554 N   0  0  0  0  0  0  0  0  0  0  0  0
   39.5433  -42.6034   10.4700 C   0  0  0  0  0  0  0  0  0  0  0  0
   38.5190  -42.5200   11.2360 O   0  0  0  0  0  0  0  0  0  0  0  0
   39.9009  -41.2662    9.8352 C   0  0  0  0  0  0  0  0  0  0  0  0
   39.8243  -41.2537    8.3860 C   0  0  0  0  0  0  0  0  0  0  0  0
   40.0778  -39.9642    7.7075 C   0  0  0  0  0  0  0  0  0  0  0  0
   40.4298  -38.7198    8.1623 C   0  0  0  0  0  0  0  0  0  0  0  0
   40.5267  -37.8859    7.0794 C   0  0  0  0  0  0  0  0  0  0  0  0
   40.2426  -38.5905    5.9747 N   0  0  0  0  0  0  0  0  0  0  0  0
   40.2238  -38.1119    4.6093 C   0  0  0  0  0  0  0  0  0  0  0  0
   40.2471  -36.7485    4.3914 C   0  0  0  0  0  0  0  0  0  0  0  0
   40.2440  -36.2107    3.1154 C   0  0  0  0  0  0  0  0  0  0  0  0
   40.2168  -37.0312    2.0155 C   0  0  0  0  0  0  0  0  0  0  0  0
   40.1932  -38.4046    2.2220 C   0  0  0  0  0  0  0  0  0  0  0  0
   40.1967  -38.9378    3.5158 C   0  0  0  0  0  0  0  0  0  0  0  0
   39.9766  -39.8233    6.3475 N   0  0  0  0  0  0  0  0  0  0  0  0
   40.6520  -46.4289    7.9982 N   0  0  0  0  0  0  0  0  0  0  0  0
  1  2  1  0  0  0  0
  2  3  2  0  0  0  0
  3  4  1  0  0  0  0
  4  5  1  0  0  0  0
  5  6  1  0  0  0  0
  5 23  2  0  0  0  0
  6  7  1  0  0  0  0
  7  8  1  0  0  0  0
  8  9  2  0  0  0  0
  8 10  1  0  0  0  0
 10 11  1  0  0  0  0
 11 12  1  0  0  0  0
 12 13  1  0  0  0  0
 13 14  2  0  0  0  0
 14 15  1  0  0  0  0
 15 16  1  0  0  0  0
 15 22  1  0  0  0  0
 16 17  2  0  0  0  0
 17 18  1  0  0  0  0
 18 19  2  0  0  0  0
 19 20  1  0  0  0  0
 20 21  2  0  0  0  0
 21 16  1  0  0  0  0
 22 12  2  0  0  0  0
 23  2  1  0  0  0  0
M  END
>  <CHROM.1>
-57.10175295,-135.35123897,61.68022042,176.34206098,2.59142556,-13.36381592
40.00632207,-41.77865885,7.27292620,-2.46069138,1.51037088,0.36118381

>  <Name>
design_9

>  <RI>
0

>  <Rbt.Current_Directory>
/home/ziqiaoxu/icml18-jtnn/VAEdesign

>  <Rbt.Executable>
rbdock ($Id: //depot/dev/client3/rdock/2013.1/src/exe/rbdock.cxx#4 $)

>  <Rbt.Library>
libRbt.so (2013.1, Build901 2013/11/27)

>  <Rbt.Parameter_File>
/export/apps/rDock/src/rDock_2013.1_src//data/scripts/dock.prm

>  <Rbt.Receptor>
/home/ziqiaoxu/icml18-jtnn/VAEdesign/targets/RdRp-SARS-CoV-2/pocket_docking.prm

>  <SCORE>
-26.7708

>  <SCORE.INTER>
-21.4537

>  <SCORE.INTER.CONST>
1

>  <SCORE.INTER.POLAR>
-2.07034

>  <SCORE.INTER.REPUL>
0.0717843

>  <SCORE.INTER.ROT>
6

>  <SCORE.INTER.VDW>
-26.1735

>  <SCORE.INTER.norm>
-0.932771

>  <SCORE.INTRA>
-5.33122

>  <SCORE.INTRA.DIHEDRAL>
-8.88263

>  <SCORE.INTRA.DIHEDRAL.0>
13.1165

>  <SCORE.INTRA.POLAR>
0

>  <SCORE.INTRA.POLAR.0>
0

>  <SCORE.INTRA.REPUL>
0

>  <SCORE.INTRA.REPUL.0>
0

>  <SCORE.INTRA.VDW>
-0.889902

>  <SCORE.INTRA.VDW.0>
0.365466

>  <SCORE.INTRA.norm>
-0.231792

>  <SCORE.RESTR>
0.0141338

>  <SCORE.RESTR.CAVITY>
0.0141338

>  <SCORE.RESTR.norm>
0.000614513

>  <SCORE.SYSTEM>
0

>  <SCORE.SYSTEM.CONST>
0

>  <SCORE.SYSTEM.DIHEDRAL>
0

>  <SCORE.SYSTEM.norm>
0

>  <SCORE.heavy>
23

>  <SCORE.norm>
-1.16395

$$$$
design_15
 OpenBabel05252019093D

 24 27  0  0  0  0  0  0  0  0999 V2000
   39.9642  -37.2995    2.5569 C   0  0  0  0  0  0  0  0  0  0  0  0
   39.7596  -37.4696    4.0112 C   0  0  0  0  0  0  0  0  0  0  0  0
   39.4479  -36.4749    4.8455 N   0  0  0  0  0  0  0  0  0  0  0  0
   39.3324  -36.9280    6.0773 N   0  0  0  0  0  0  0  0  0  0  0  0
   39.5779  -38.2535    6.0283 C   0  0  0  0  0  0  0  0  0  0  0  0
   39.5567  -39.1568    7.1839 C   0  0  0  0  0  0  0  0  0  0  0  0
   40.3750  -38.9117    8.2547 C   0  0  0  0  0  0  0  0  0  0  0  0
   40.3391  -39.7690    9.3289 C   0  0  0  0  0  0  0  0  0  0  0  0
   39.5095  -40.8669    9.3681 C   0  0  0  0  0  0  0  0  0  0  0  0
   39.5178  -41.7481   10.5392 C   0  0  0  0  0  0  0  0  0  0  0  0
   39.3400  -43.1688   10.1478 N   0  0  0  0  0  0  0  0  0  0  0  0
   40.1144  -43.7524    9.1610 C   0  0  0  0  0  0  0  0  0  0  0  0
   41.0135  -42.9844    8.5954 O   0  0  0  0  0  0  0  0  0  0  0  0
   40.0601  -45.1298    8.6622 C   0  0  0  0  0  0  0  0  0  0  0  0
   38.9967  -46.3664    9.3037 S   0  0  0  0  0  0  0  0  0  0  0  0
   39.4326  -47.6552    8.3108 C   0  0  0  0  0  0  0  0  0  0  0  0
   40.3840  -47.1195    7.5055 C   0  0  0  0  0  0  0  0  0  0  0  0
   40.7118  -45.8126    7.6845 C   0  0  0  0  0  0  0  0  0  0  0  0
   41.7949  -45.1356    6.8438 C   0  0  0  0  0  0  0  0  0  0  0  0
   43.1852  -45.7233    6.8905 C   0  0  0  0  0  0  0  0  0  0  0  0
   42.3602  -45.8661    5.6670 C   0  0  0  0  0  0  0  0  0  0  0  0
   38.6911  -41.1114    8.2966 C   0  0  0  0  0  0  0  0  0  0  0  0
   38.7159  -40.2469    7.1938 C   0  0  0  0  0  0  0  0  0  0  0  0
   39.8390  -38.5802    4.7605 N   0  0  0  0  0  0  0  0  0  0  0  0
  1  2  1  0  0  0  0
  2  3  2  0  0  0  0
  3  4  1  0  0  0  0
  4  5  1  0  0  0  0
  5  6  1  0  0  0  0
  5 24  2  0  0  0  0
  6  7  2  0  0  0  0
  7  8  1  0  0  0  0
  8  9  2  0  0  0  0
  9 10  1  0  0  0  0
  9 22  1  0  0  0  0
 10 11  1  0  0  0  0
 11 12  1  0  0  0  0
 12 13  2  0  0  0  0
 12 14  1  0  0  0  0
 14 15  1  0  0  0  0
 15 16  1  0  0  0  0
 16 17  2  0  0  0  0
 17 18  1  0  0  0  0
 18 19  1  0  0  0  0
 18 14  2  0  0  0  0
 19 20  1  0  0  0  0
 20 21  1  0  0  0  0
 21 19  1  0  0  0  0
 22 23  2  0  0  0  0
 23  6  1  0  0  0  0
 24  2  1  0  0  0  0
M  END
>  <CHROM.1>
-57.61169694,-143.20293824,50.51419195,-2.79635528,119.73598531,40.03436893
-42.11433895,7.47311971,-1.77532256,-1.16105680,2.61262904

>  <Name>
design_15

>  <RI>
0

>  <Rbt.Current_Directory>
/home/ziqiaoxu/icml18-jtnn/VAEdesign

>  <Rbt.Executable>
rbdock ($Id: //depot/dev/client3/rdock/2013.1/src/exe/rbdock.cxx#4 $)

>  <Rbt.Library>
libRbt.so (2013.1, Build901 2013/11/27)

>  <Rbt.Parameter_File>
/export/apps/rDock/src/rDock_2013.1_src//data/scripts/dock.prm

>  <Rbt.Receptor>
/home/ziqiaoxu/icml18-jtnn/VAEdesign/targets/RdRp-SARS-CoV-2/pocket_docking.prm

>  <SCORE>
-17.2617

>  <SCORE.INTER>
-21.947

>  <SCORE.INTER.CONST>
1

>  <SCORE.INTER.POLAR>
-1.81672

>  <SCORE.INTER.REPUL>
0

>  <SCORE.INTER.ROT>
5

>  <SCORE.INTER.VDW>
-26.1702

>  <SCORE.INTER.norm>
-0.91446

>  <SCORE.INTRA>
4.68535

>  <SCORE.INTRA.DIHEDRAL>
9.17347

>  <SCORE.INTRA.DIHEDRAL.0>
2.9529

>  <SCORE.INTRA.POLAR>
0

>  <SCORE.INTRA.POLAR.0>
0

>  <SCORE.INTRA.REPUL>
0

>  <SCORE.INTRA.REPUL.0>
0

>  <SCORE.INTRA.VDW>
0.0986174

>  <SCORE.INTRA.VDW.0>
-1.81331

>  <SCORE.INTRA.norm>
0.195223

>  <SCORE.RESTR>
0

>  <SCORE.RESTR.CAVITY>
0

>  <SCORE.RESTR.norm>
0

>  <SCORE.SYSTEM>
0

>  <SCORE.SYSTEM.CONST>
0

>  <SCORE.SYSTEM.DIHEDRAL>
0

>  <SCORE.SYSTEM.norm>
0

>  <SCORE.heavy>
24

>  <SCORE.norm>
-0.719237

$$$$
design_3
 OpenBabel05252019093D

 20 21  0  0  0  0  0  0  0  0999 V2000
   42.7376  -44.3462    9.2674 C   0  0  0  0  0  0  0  0  0  0  0  0
   41.8272  -45.3847    8.7382 C   0  0  0  0  0  0  0  0  0  0  0  0
   40.7695  -45.8162    9.5113 C   0  0  0  0  0  0  0  0  0  0  0  0
   40.4894  -45.3260   10.7988 N   0  0  0  0  0  0  0  0  0  0  0  0
   39.9109  -46.7963    9.0110 C   0  0  0  0  0  0  0  0  0  0  0  0
   40.1519  -47.3023    7.7525 C   0  0  0  0  0  0  0  0  0  0  0  0
   39.0786  -48.5301    7.1223 S   0  0  0  0  0  0  0  0  0  0  0  0
   38.3185  -49.0990    8.2902 O   0  0  0  0  0  0  0  0  0  0  0  0
   39.9112  -49.5864    6.4617 O   0  0  0  0  0  0  0  0  0  0  0  0
   37.9798  -47.8970    5.9745 N   0  0  0  0  0  0  0  0  0  0  0  0
   37.5440  -46.5497    5.9976 C   0  0  0  0  0  0  0  0  0  0  0  0
   36.3966  -46.2207    5.3031 C   0  0  0  0  0  0  0  0  0  0  0  0
   35.9112  -44.9141    5.2880 C   0  0  0  0  0  0  0  0  0  0  0  0
   36.5740  -43.9276    5.9701 C   0  0  0  0  0  0  0  0  0  0  0  0
   35.9624  -42.2765    5.9525 Cl  0  0  0  0  0  0  0  0  0  0  0  0
   37.7041  -44.2334    6.6583 C   0  0  0  0  0  0  0  0  0  0  0  0
   38.1821  -45.5389    6.6686 C   0  0  0  0  0  0  0  0  0  0  0  0
   41.2059  -46.8633    6.9981 C   0  0  0  0  0  0  0  0  0  0  0  0
   42.0533  -45.9016    7.4820 C   0  0  0  0  0  0  0  0  0  0  0  0
   43.4222  -45.3082    6.5440 Cl  0  0  0  0  0  0  0  0  0  0  0  0
  1  2  1  0  0  0  0
  2  3  2  0  0  0  0
  3  4  1  0  0  0  0
  3  5  1  0  0  0  0
  5  6  2  0  0  0  0
  6  7  1  0  0  0  0
  6 18  1  0  0  0  0
  7  8  2  0  0  0  0
  7  9  2  0  0  0  0
  7 10  1  0  0  0  0
 10 11  1  0  0  0  0
 11 12  2  0  0  0  0
 12 13  1  0  0  0  0
 13 14  2  0  0  0  0
 14 15  1  0  0  0  0
 14 16  1  0  0  0  0
 16 17  2  0  0  0  0
 17 11  1  0  0  0  0
 18 19  2  0  0  0  0
 19 20  1  0  0  0  0
 19  2  1  0  0  0  0
M  END
>  <CHROM.1>
-17.28046579,-28.19167681,-161.63415203,39.35472389,-45.97759682,7.17166279
-0.34794318,-0.37479062,0.00443498

>  <Name>
design_3

>  <RI>
0

>  <Rbt.Current_Directory>
/home/ziqiaoxu/icml18-jtnn/VAEdesign

>  <Rbt.Executable>
rbdock ($Id: //depot/dev/client3/rdock/2013.1/src/exe/rbdock.cxx#4 $)

>  <Rbt.Library>
libRbt.so (2013.1, Build901 2013/11/27)

>  <Rbt.Parameter_File>
/export/apps/rDock/src/rDock_2013.1_src//data/scripts/dock.prm

>  <Rbt.Receptor>
/home/ziqiaoxu/icml18-jtnn/VAEdesign/targets/RdRp-SARS-CoV-2/pocket_docking.prm

>  <SCORE>
-24.7259

>  <SCORE.INTER>
-22.4483

>  <SCORE.INTER.CONST>
1

>  <SCORE.INTER.POLAR>
-1.37661

>  <SCORE.INTER.REPUL>
0

>  <SCORE.INTER.ROT>
3

>  <SCORE.INTER.VDW>
-26.1678

>  <SCORE.INTER.norm>
-1.12242

>  <SCORE.INTRA>
-2.27759

>  <SCORE.INTRA.DIHEDRAL>
-5.44999

>  <SCORE.INTRA.DIHEDRAL.0>
9.10742

>  <SCORE.INTRA.POLAR>
0

>  <SCORE.INTRA.POLAR.0>
0

>  <SCORE.INTRA.REPUL>
0

>  <SCORE.INTRA.REPUL.0>
0

>  <SCORE.INTRA.VDW>
0.4474

>  <SCORE.INTRA.VDW.0>
-2.06552

>  <SCORE.INTRA.norm>
-0.11388

>  <SCORE.RESTR>
0

>  <SCORE.RESTR.CAVITY>
0

>  <SCORE.RESTR.norm>
0

>  <SCORE.SYSTEM>
0

>  <SCORE.SYSTEM.CONST>
0

>  <SCORE.SYSTEM.DIHEDRAL>
0

>  <SCORE.SYSTEM.norm>
0

>  <SCORE.heavy>
20

>  <SCORE.norm>
-1.2363

$$$$
design_3
 OpenBabel05252019093D

 25 27  0  0  0  0  0  0  0  0999 V2000
   39.8497  -41.0323    9.0350 C   0  0  0  0  0  0  0  0  0  0  0  0
   39.6550  -40.6827    7.5902 C   0  0  0  0  0  0  0  0  0  0  0  0
   38.6798  -41.6000    6.9442 C   0  0  0  0  0  0  0  0  0  0  0  0
   39.0969  -42.8328    6.4912 C   0  0  0  0  0  0  0  0  0  0  0  0
   38.2137  -43.7117    5.8855 C   0  0  0  0  0  0  0  0  0  0  0  0
   36.8962  -43.3588    5.7283 C   0  0  0  0  0  0  0  0  0  0  0  0
   36.0003  -44.2163    5.1292 O   0  0  0  0  0  0  0  0  0  0  0  0
   35.7513  -45.4859    5.6491 C   0  0  0  0  0  0  0  0  0  0  0  0
   36.8887  -46.3855    5.4422 C   0  0  0  0  0  0  0  0  0  0  0  0
   37.1009  -46.6963    4.2111 O   0  0  0  0  0  0  0  0  0  0  0  0
   37.7360  -46.9187    6.4277 N   0  0  0  0  0  0  0  0  0  0  0  0
   38.8205  -47.8087    5.9646 C   0  0  0  0  0  0  0  0  0  0  0  0
   38.8580  -48.9711    6.8983 C   0  0  0  0  0  0  0  0  0  0  0  0
   39.0673  -48.6427    8.1989 O   0  0  0  0  0  0  0  0  0  0  0  0
   38.6943  -47.4048    8.6085 C   0  0  1  0  0  0  0  0  0  0  0  0
   39.8487  -46.5222    9.0198 C   0  0  0  0  0  0  0  0  0  0  0  0
   40.9420  -46.1731    8.3263 N   0  0  0  0  0  0  0  0  0  0  0  0
   41.7524  -45.3642    9.0281 C   0  0  0  0  0  0  0  0  0  0  0  0
   43.0525  -44.7628    8.6157 C   0  0  0  0  0  0  0  0  0  0  0  0
   43.1957  -44.8556    7.1126 C   0  0  0  0  0  0  0  0  0  0  0  0
   41.1309  -45.2053   10.2122 N   0  0  0  0  0  0  0  0  0  0  0  0
   39.9992  -45.8873   10.2215 N   0  0  0  0  0  0  0  0  0  0  0  0
   37.6513  -46.6830    7.8327 C   0  0  0  0  0  0  0  0  0  0  0  0
   36.4578  -42.1359    6.1717 C   0  0  0  0  0  0  0  0  0  0  0  0
   37.3640  -41.2581    6.7825 C   0  0  0  0  0  0  0  0  0  0  0  0
  1  2  1  0  0  0  0
  2  3  1  0  0  0  0
  3  4  2  0  0  0  0
  4  5  1  0  0  0  0
  5  6  2  0  0  0  0
  6  7  1  0  0  0  0
  6 24  1  0  0  0  0
  7  8  1  0  0  0  0
  8  9  1  0  0  0  0
  9 10  2  0  0  0  0
  9 11  1  0  0  0  0
 11 12  1  0  0  0  0
 12 13  1  0  0  0  0
 13 14  1  0  0  0  0
 14 15  1  0  0  0  0
 15 16  1  6  0  0  0
 15 23  1  0  0  0  0
 16 17  2  0  0  0  0
 17 18  1  0  0  0  0
 18 19  1  0  0  0  0
 18 21  2  0  0  0  0
 19 20  1  0  0  0  0
 21 22  1  0  0  0  0
 22 16  1  0  0  0  0
 23 11  1  0  0  0  0
 24 25  2  0  0  0  0
 25  3  1  0  0  0  0
M  END
>  <CHROM.1>
-82.20990711,59.36995311,-71.42149851,-68.00617351,55.51554234,16.26323360
38.91483236,-45.03290921,7.25989753,-2.41605171,0.62521082,3.13336339

>  <Name>
design_3

>  <RI>
0

>  <Rbt.Current_Directory>
/home/ziqiaoxu/icml18-jtnn/VAEdesign

>  <Rbt.Executable>
rbdock ($Id: //depot/dev/client3/rdock/2013.1/src/exe/rbdock.cxx#4 $)

>  <Rbt.Library>
libRbt.so (2013.1, Build901 2013/11/27)

>  <Rbt.Parameter_File>
/export/apps/rDock/src/rDock_2013.1_src//data/scripts/dock.prm

>  <Rbt.Receptor>
/home/ziqiaoxu/icml18-jtnn/VAEdesign/targets/RdRp-SARS-CoV-2/pocket_docking.prm

>  <SCORE>
-18.3308

>  <SCORE.INTER>
-17.4188

>  <SCORE.INTER.CONST>
1

>  <SCORE.INTER.POLAR>
-1.01125

>  <SCORE.INTER.REPUL>
0.15541

>  <SCORE.INTER.ROT>
6

>  <SCORE.INTER.VDW>
-26.1576

>  <SCORE.INTER.norm>
-0.696752

>  <SCORE.INTRA>
-0.911947

>  <SCORE.INTRA.DIHEDRAL>
4.18102

>  <SCORE.INTRA.DIHEDRAL.0>
4.44263

>  <SCORE.INTRA.POLAR>
0

>  <SCORE.INTRA.POLAR.0>
0

>  <SCORE.INTRA.REPUL>
0

>  <SCORE.INTRA.REPUL.0>
0

>  <SCORE.INTRA.VDW>
-3.00246

>  <SCORE.INTRA.VDW.0>
0.717027

>  <SCORE.INTRA.norm>
-0.0364779

>  <SCORE.RESTR>
0

>  <SCORE.RESTR.CAVITY>
0

>  <SCORE.RESTR.norm>
0

>  <SCORE.SYSTEM>
0

>  <SCORE.SYSTEM.CONST>
0

>  <SCORE.SYSTEM.DIHEDRAL>
0

>  <SCORE.SYSTEM.norm>
0

>  <SCORE.heavy>
25

>  <SCORE.norm>
-0.73323

$$$$
design_8
 OpenBabel05252019093D

 25 27  0  0  0  0  0  0  0  0999 V2000
   39.9596  -46.0774   10.6455 N   0  0  0  0  0  0  0  0  0  0  0  0
   40.7044  -44.9389   10.2537 C   0  0  0  0  0  0  0  0  0  0  0  0
   40.3661  -43.8201   10.7055 O   0  0  0  0  0  0  0  0  0  0  0  0
   41.8463  -45.0039    9.3501 C   0  0  0  0  0  0  0  0  0  0  0  0
   41.9124  -45.8940    8.3087 C   0  0  0  0  0  0  0  0  0  0  0  0
   43.0305  -45.9249    7.4611 C   0  0  0  0  0  0  0  0  0  0  0  0
   44.1061  -45.0909    7.6107 C   0  0  0  0  0  0  0  0  0  0  0  0
   45.2665  -45.0925    6.8039 N   0  0  0  0  0  0  0  0  0  0  0  0
   46.1284  -44.0171    6.5209 C   0  0  0  0  0  0  0  0  0  0  0  0
   45.9297  -42.8890    6.9838 O   0  0  0  0  0  0  0  0  0  0  0  0
   47.2885  -44.2402    5.6560 C   0  0  0  0  0  0  0  0  0  0  0  0
   47.0081  -44.6405    4.2529 C   0  0  0  0  0  0  0  0  0  0  0  0
   46.6114  -46.0527    4.0240 C   0  0  0  0  0  0  0  0  0  0  0  0
   46.7323  -46.5113    2.6116 C   0  0  0  0  0  0  0  0  0  0  0  0
   47.8919  -47.1608    2.2192 C   0  0  0  0  0  0  0  0  0  0  0  0
   48.0241  -47.5506    0.9164 C   0  0  0  0  0  0  0  0  0  0  0  0
   47.0673  -47.3364   -0.0395 C   0  0  0  0  0  0  0  0  0  0  0  0
   45.8888  -46.6834    0.3362 C   0  0  0  0  0  0  0  0  0  0  0  0
   44.8901  -46.4472   -0.5642 C   0  0  0  0  0  0  0  0  0  0  0  0
   43.7343  -45.8124   -0.1661 C   0  0  0  0  0  0  0  0  0  0  0  0
   43.5582  -45.4037    1.1389 C   0  0  0  0  0  0  0  0  0  0  0  0
   44.5712  -45.6481    2.0322 C   0  0  0  0  0  0  0  0  0  0  0  0
   45.7556  -46.2867    1.6655 C   0  0  0  0  0  0  0  0  0  0  0  0
   44.0041  -44.1911    8.6885 C   0  0  0  0  0  0  0  0  0  0  0  0
   42.9168  -44.1548    9.5191 C   0  0  0  0  0  0  0  0  0  0  0  0
  1  2  1  0  0  0  0
  2  3  2  0  0  0  0
  2  4  1  0  0  0  0
  4  5  2  0  0  0  0
  5  6  1  0  0  0  0
  6  7  2  0  0  0  0
  7  8  1  0  0  0  0
  7 24  1  0  0  0  0
  8  9  1  0  0  0  0
  9 10  2  0  0  0  0
  9 11  1  0  0  0  0
 11 12  1  0  0  0  0
 12 13  1  0  0  0  0
 13 14  1  0  0  0  0
 14 15  2  0  0  0  0
 15 16  1  0  0  0  0
 16 17  2  0  0  0  0
 17 18  1  0  0  0  0
 18 19  2  0  0  0  0
 19 20  1  0  0  0  0
 20 21  2  0  0  0  0
 21 22  1  0  0  0  0
 22 23  2  0  0  0  0
 23 14  1  0  0  0  0
 23 18  1  0  0  0  0
 24 25  2  0  0  0  0
 25  4  1  0  0  0  0
M  END
>  <CHROM.1>
34.59116363,152.12508680,63.28117241,-77.02358525,-162.76675989,94.70374003
44.56722716,-45.44024550,5.19277636,2.04800199,0.20208114,1.27568964

>  <Name>
design_8

>  <RI>
0

>  <Rbt.Current_Directory>
/home/ziqiaoxu/icml18-jtnn/VAEdesign

>  <Rbt.Executable>
rbdock ($Id: //depot/dev/client3/rdock/2013.1/src/exe/rbdock.cxx#4 $)

>  <Rbt.Library>
libRbt.so (2013.1, Build901 2013/11/27)

>  <Rbt.Parameter_File>
/export/apps/rDock/src/rDock_2013.1_src//data/scripts/dock.prm

>  <Rbt.Receptor>
/home/ziqiaoxu/icml18-jtnn/VAEdesign/targets/RdRp-SARS-CoV-2/pocket_docking.prm

>  <SCORE>
-21.322

>  <SCORE.INTER>
-24.3741

>  <SCORE.INTER.CONST>
1

>  <SCORE.INTER.POLAR>
-2.9633

>  <SCORE.INTER.REPUL>
0.0913987

>  <SCORE.INTER.ROT>
6

>  <SCORE.INTER.VDW>
-26.1559

>  <SCORE.INTER.norm>
-0.974965

>  <SCORE.INTRA>
3.05215

>  <SCORE.INTRA.DIHEDRAL>
8.1189

>  <SCORE.INTRA.DIHEDRAL.0>
2.84904

>  <SCORE.INTRA.POLAR>
0

>  <SCORE.INTRA.POLAR.0>
0

>  <SCORE.INTRA.REPUL>
0

>  <SCORE.INTRA.REPUL.0>
0

>  <SCORE.INTRA.VDW>
-1.0073

>  <SCORE.INTRA.VDW.0>
-0.668914

>  <SCORE.INTRA.norm>
0.122086

>  <SCORE.RESTR>
0

>  <SCORE.RESTR.CAVITY>
0

>  <SCORE.RESTR.norm>
0

>  <SCORE.SYSTEM>
0

>  <SCORE.SYSTEM.CONST>
0

>  <SCORE.SYSTEM.DIHEDRAL>
0

>  <SCORE.SYSTEM.norm>
0

>  <SCORE.heavy>
25

>  <SCORE.norm>
-0.852879

$$$$
design_7
 OpenBabel05252019093D

 22 24  0  0  0  0  0  0  0  0999 V2000
   46.7863  -46.0917    3.4671 C   0  0  0  0  0  0  0  0  0  0  0  0
   46.4202  -45.4789    4.7905 C   0  0  0  0  0  0  0  0  0  0  0  0
   47.1407  -44.6262    5.5321 N   0  0  0  0  0  0  0  0  0  0  0  0
   46.4576  -44.3410    6.6167 N   0  0  0  0  0  0  0  0  0  0  0  0
   45.2900  -44.9776    6.6354 C   0  0  0  0  0  0  0  0  0  0  0  0
   44.2374  -44.9641    7.6265 C   0  0  0  0  0  0  0  0  0  0  0  0
   44.3444  -44.3044    8.8235 C   0  0  0  0  0  0  0  0  0  0  0  0
   43.3076  -44.2994    9.7670 C   0  0  0  0  0  0  0  0  0  0  0  0
   42.1368  -44.9524    9.5385 C   0  0  0  0  0  0  0  0  0  0  0  0
   41.0287  -44.9760   10.5111 C   0  0  0  0  0  0  0  0  0  0  0  0
   40.0803  -45.9992   10.2493 N   0  0  0  0  0  0  0  0  0  0  0  0
   38.9846  -45.7862    9.3946 C   0  0  0  0  0  0  0  0  0  0  0  0
   38.8297  -44.6664    8.8413 O   0  0  0  0  0  0  0  0  0  0  0  0
   37.9789  -46.8687    9.1068 C   0  0  0  0  0  0  0  0  0  0  0  0
   38.5624  -47.7145    7.9960 C   0  0  0  0  0  0  0  0  0  0  0  0
   38.6483  -49.0595    7.8400 C   0  0  0  0  0  0  0  0  0  0  0  0
   39.2280  -49.5302    6.7210 C   0  0  0  0  0  0  0  0  0  0  0  0
   39.6928  -48.6180    5.8172 C   0  0  0  0  0  0  0  0  0  0  0  0
   39.3088  -47.1233    6.5461 S   0  0  0  0  0  0  0  0  0  0  0  0
   42.0333  -45.6242    8.3162 C   0  0  0  0  0  0  0  0  0  0  0  0
   43.0359  -45.6419    7.3797 C   0  0  0  0  0  0  0  0  0  0  0  0
   45.2733  -45.6969    5.4726 N   0  0  0  0  0  0  0  0  0  0  0  0
  1  2  1  0  0  0  0
  2  3  2  0  0  0  0
  3  4  1  0  0  0  0
  4  5  1  0  0  0  0
  5  6  1  0  0  0  0
  5 22  2  0  0  0  0
  6  7  2  0  0  0  0
  7  8  1  0  0  0  0
  8  9  2  0  0  0  0
  9 10  1  0  0  0  0
  9 20  1  0  0  0  0
 10 11  1  0  0  0  0
 11 12  1  0  0  0  0
 12 13  2  0  0  0  0
 12 14  1  0  0  0  0
 14 15  1  0  0  0  0
 15 16  2  0  0  0  0
 16 17  1  0  0  0  0
 17 18  2  0  0  0  0
 18 19  1  0  0  0  0
 19 15  1  0  0  0  0
 20 21  2  0  0  0  0
 21  6  1  0  0  0  0
 22  2  1  0  0  0  0
M  END
>  <CHROM.1>
-4.68584590,-163.21302574,-88.31326190,-83.71010336,134.59740885,42.05327095
-46.02031860,7.52649263,0.10535179,-0.40831078,-2.18129100

>  <Name>
design_7

>  <RI>
0

>  <Rbt.Current_Directory>
/home/ziqiaoxu/icml18-jtnn/VAEdesign

>  <Rbt.Executable>
rbdock ($Id: //depot/dev/client3/rdock/2013.1/src/exe/rbdock.cxx#4 $)

>  <Rbt.Library>
libRbt.so (2013.1, Build901 2013/11/27)

>  <Rbt.Parameter_File>
/export/apps/rDock/src/rDock_2013.1_src//data/scripts/dock.prm

>  <Rbt.Receptor>
/home/ziqiaoxu/icml18-jtnn/VAEdesign/targets/RdRp-SARS-CoV-2/pocket_docking.prm

>  <SCORE>
-21.5927

>  <SCORE.INTER>
-19.9874

>  <SCORE.INTER.CONST>
1

>  <SCORE.INTER.POLAR>
-1.24478

>  <SCORE.INTER.REPUL>
0

>  <SCORE.INTER.ROT>
5

>  <SCORE.INTER.VDW>
-26.1552

>  <SCORE.INTER.norm>
-0.90852

>  <SCORE.INTRA>
-1.60529

>  <SCORE.INTRA.DIHEDRAL>
-1.8311

>  <SCORE.INTRA.DIHEDRAL.0>
5.54083

>  <SCORE.INTRA.POLAR>
0

>  <SCORE.INTRA.POLAR.0>
0

>  <SCORE.INTRA.REPUL>
0

>  <SCORE.INTRA.REPUL.0>
0

>  <SCORE.INTRA.VDW>
-0.689737

>  <SCORE.INTRA.VDW.0>
-2.14049

>  <SCORE.INTRA.norm>
-0.0729677

>  <SCORE.RESTR>
0

>  <SCORE.RESTR.CAVITY>
0

>  <SCORE.RESTR.norm>
0

>  <SCORE.SYSTEM>
0

>  <SCORE.SYSTEM.CONST>
0

>  <SCORE.SYSTEM.DIHEDRAL>
0

>  <SCORE.SYSTEM.norm>
0

>  <SCORE.heavy>
22

>  <SCORE.norm>
-0.981487

$$$$
design_0
 OpenBabel05252019093D

 24 25  0  0  0  0  0  0  0  0999 V2000
   39.9874  -36.4210    2.3815 C   0  0  0  0  0  0  0  0  0  0  0  0
   39.8855  -37.0612    3.7245 C   0  0  0  0  0  0  0  0  0  0  0  0
   39.6228  -38.4032    3.8439 C   0  0  0  0  0  0  0  0  0  0  0  0
   39.5255  -39.0141    5.1088 C   0  0  0  0  0  0  0  0  0  0  0  0
   39.6850  -38.3155    6.2737 C   0  0  0  0  0  0  0  0  0  0  0  0
   39.6087  -38.8598    7.5748 N   0  0  0  0  0  0  0  0  0  0  0  0
   39.3061  -40.1660    7.9646 C   0  0  0  0  0  0  0  0  0  0  0  0
   39.0521  -41.0686    7.1624 O   0  0  0  0  0  0  0  0  0  0  0  0
   39.2806  -40.5076    9.3379 N   0  0  0  0  0  0  0  0  0  0  0  0
   38.9791  -41.8261    9.8263 C   0  0  2  0  0  0  0  0  0  0  0  0
   38.7336  -41.8566   11.3167 C   0  0  0  0  0  0  0  0  0  0  0  0
   40.0101  -42.8178    9.4489 C   0  0  0  0  0  0  0  0  0  0  0  0
   40.9883  -42.4340    8.7601 O   0  0  0  0  0  0  0  0  0  0  0  0
   39.9477  -44.1830    9.8274 N   0  0  0  0  0  0  0  0  0  0  0  0
   40.9345  -45.1546    9.4708 C   0  0  0  0  0  0  0  0  0  0  0  0
   40.4383  -46.2249    8.5809 C   0  0  0  0  0  0  0  0  0  0  0  0
   40.9963  -46.5215    7.3654 C   0  0  0  0  0  0  0  0  0  0  0  0
   40.4549  -47.5377    6.6225 C   0  0  0  0  0  0  0  0  0  0  0  0
   39.3649  -48.2907    7.0321 C   0  0  0  0  0  0  0  0  0  0  0  0
   38.8517  -49.2911    6.2723 F   0  0  0  0  0  0  0  0  0  0  0  0
   38.8208  -47.9770    8.2537 C   0  0  0  0  0  0  0  0  0  0  0  0
   39.3483  -46.9515    9.0297 C   0  0  0  0  0  0  0  0  0  0  0  0
   39.9525  -36.9454    6.1231 C   0  0  0  0  0  0  0  0  0  0  0  0
   40.0478  -36.3469    4.8880 C   0  0  0  0  0  0  0  0  0  0  0  0
  1  2  1  0  0  0  0
  2  3  2  0  0  0  0
  3  4  1  0  0  0  0
  4  5  2  0  0  0  0
  5  6  1  0  0  0  0
  5 23  1  0  0  0  0
  6  7  1  0  0  0  0
  7  8  2  0  0  0  0
  7  9  1  0  0  0  0
  9 10  1  0  0  0  0
 10 11  1  1  0  0  0
 10 12  1  0  0  0  0
 12 13  2  0  0  0  0
 12 14  1  0  0  0  0
 14 15  1  0  0  0  0
 15 16  1  0  0  0  0
 16 17  2  0  0  0  0
 17 18  1  0  0  0  0
 18 19  2  0  0  0  0
 19 20  1  0  0  0  0
 19 21  1  0  0  0  0
 21 22  2  0  0  0  0
 22 16  1  0  0  0  0
 23 24  2  0  0  0  0
 24  2  1  0  0  0  0
M  END
>  <CHROM.1>
-3.11885861,-167.89378307,-0.84572367,-115.21813535,123.76974667,39.72606453
-42.32552279,7.37165886,-1.37483853,-1.53604989,3.04130965

>  <Name>
design_0

>  <RI>
0

>  <Rbt.Current_Directory>
/home/ziqiaoxu/icml18-jtnn/VAEdesign

>  <Rbt.Executable>
rbdock ($Id: //depot/dev/client3/rdock/2013.1/src/exe/rbdock.cxx#4 $)

>  <Rbt.Library>
libRbt.so (2013.1, Build901 2013/11/27)

>  <Rbt.Parameter_File>
/export/apps/rDock/src/rDock_2013.1_src//data/scripts/dock.prm

>  <Rbt.Receptor>
/home/ziqiaoxu/icml18-jtnn/VAEdesign/targets/RdRp-SARS-CoV-2/pocket_docking.prm

>  <SCORE>
-22.2737

>  <SCORE.INTER>
-22.7073

>  <SCORE.INTER.CONST>
1

>  <SCORE.INTER.POLAR>
-2.04494

>  <SCORE.INTER.REPUL>
0

>  <SCORE.INTER.ROT>
5

>  <SCORE.INTER.VDW>
-26.1546

>  <SCORE.INTER.norm>
-0.946139

>  <SCORE.INTRA>
0.410575

>  <SCORE.INTRA.DIHEDRAL>
-0.0241986

>  <SCORE.INTRA.DIHEDRAL.0>
4.0355

>  <SCORE.INTRA.POLAR>
0

>  <SCORE.INTRA.POLAR.0>
0

>  <SCORE.INTRA.REPUL>
0

>  <SCORE.INTRA.REPUL.0>
0

>  <SCORE.INTRA.VDW>
0.422674

>  <SCORE.INTRA.VDW.0>
-1.55413

>  <SCORE.INTRA.norm>
0.0171073

>  <SCORE.RESTR>
0.0230815

>  <SCORE.RESTR.CAVITY>
0.0230815

>  <SCORE.RESTR.norm>
0.000961728

>  <SCORE.SYSTEM>
0

>  <SCORE.SYSTEM.CONST>
0

>  <SCORE.SYSTEM.DIHEDRAL>
0

>  <SCORE.SYSTEM.norm>
0

>  <SCORE.heavy>
24

>  <SCORE.norm>
-0.92807

$$$$
design_7
 OpenBabel05252019093D

 24 25  0  0  0  0  0  0  0  0999 V2000
   40.5553  -45.5187   10.9868 N   0  0  0  0  0  0  0  0  0  0  0  0
   41.0394  -45.5324    9.6975 C   0  0  0  0  0  0  0  0  0  0  0  0
   42.0485  -44.8088    9.3766 O   0  0  0  0  0  0  0  0  0  0  0  0
   40.5056  -46.3308    8.6335 C   0  0  0  0  0  0  0  0  0  0  0  0
   39.4189  -47.1200    8.8924 C   0  0  0  0  0  0  0  0  0  0  0  0
   38.8432  -47.8995    7.9069 C   0  0  0  0  0  0  0  0  0  0  0  0
   39.3891  -47.8538    6.6799 C   0  0  0  0  0  0  0  0  0  0  0  0
   40.5281  -47.0478    6.3582 C   0  0  0  0  0  0  0  0  0  0  0  0
   40.9093  -47.1365    4.9661 C   0  0  0  0  0  0  0  0  0  0  0  0
   41.1168  -46.1653    4.0826 O   0  0  0  0  0  0  0  0  0  0  0  0
   40.1028  -45.2366    3.6468 C   0  0  0  0  0  0  0  0  0  0  0  0
   39.1005  -45.1962    4.3697 O   0  0  0  0  0  0  0  0  0  0  0  0
   40.4459  -44.5326    2.4660 C   0  0  0  0  0  0  0  0  0  0  0  0
   40.9737  -43.5462    1.7895 N   0  0  0  0  0  0  0  0  0  0  0  0
   42.2541  -43.3234    1.2663 C   0  0  0  0  0  0  0  0  0  0  0  0
   43.2303  -43.9554    1.1237 O   0  0  0  0  0  0  0  0  0  0  0  0
   42.3529  -41.8494    0.8270 C   0  0  0  0  0  0  0  0  0  0  0  0
   41.7995  -40.8615    1.4624 C   0  0  0  0  0  0  0  0  0  0  0  0
   42.3548  -39.5615    1.2730 C   0  0  0  0  0  0  0  0  0  0  0  0
   43.4261  -39.4571    0.4352 C   0  0  0  0  0  0  0  0  0  0  0  0
   43.9980  -40.5195   -0.2325 C   0  0  0  0  0  0  0  0  0  0  0  0
   45.3985  -40.3554   -1.2401 Cl  0  0  0  0  0  0  0  0  0  0  0  0
   43.4628  -41.7743   -0.0516 C   0  0  0  0  0  0  0  0  0  0  0  0
   41.0784  -46.2871    7.3422 C   0  0  0  0  0  0  0  0  0  0  0  0
  1  2  1  0  0  0  0
  2  3  2  0  0  0  0
  2  4  1  0  0  0  0
  4  5  2  0  0  0  0
  5  6  1  0  0  0  0
  6  7  2  0  0  0  0
  7  8  1  0  0  0  0
  8  9  1  0  0  0  0
  8 24  2  0  0  0  0
  9 10  1  0  0  0  0
 10 11  1  0  0  0  0
 11 12  2  0  0  0  0
 11 13  1  0  0  0  0
 13 14  1  0  0  0  0
 14 15  1  0  0  0  0
 15 16  2  0  0  0  0
 15 17  1  0  0  0  0
 17 18  2  0  0  0  0
 18 19  1  0  0  0  0
 19 20  2  0  0  0  0
 20 21  1  0  0  0  0
 21 22  1  0  0  0  0
 21 23  2  0  0  0  0
 23 17  1  0  0  0  0
 24  4  1  0  0  0  0
M  END
>  <CHROM.1>
1.50598007,127.85519468,-62.85920261,16.02024757,-89.33874552,89.07706451
36.74912802,41.66534343,-44.03346614,3.95544199,-2.19055085,-0.96799621,-1.51097793

>  <Name>
design_7

>  <RI>
0

>  <Rbt.Current_Directory>
/home/ziqiaoxu/icml18-jtnn/VAEdesign

>  <Rbt.Executable>
rbdock ($Id: //depot/dev/client3/rdock/2013.1/src/exe/rbdock.cxx#4 $)

>  <Rbt.Library>
libRbt.so (2013.1, Build901 2013/11/27)

>  <Rbt.Parameter_File>
/export/apps/rDock/src/rDock_2013.1_src//data/scripts/dock.prm

>  <Rbt.Receptor>
/home/ziqiaoxu/icml18-jtnn/VAEdesign/targets/RdRp-SARS-CoV-2/pocket_docking.prm

>  <SCORE>
-25.2179

>  <SCORE.INTER>
-21.0831

>  <SCORE.INTER.CONST>
1

>  <SCORE.INTER.POLAR>
-2.15821

>  <SCORE.INTER.REPUL>
0.00159543

>  <SCORE.INTER.ROT>
7

>  <SCORE.INTER.VDW>
-26.1531

>  <SCORE.INTER.norm>
-0.878462

>  <SCORE.INTRA>
-4.13482

>  <SCORE.INTRA.DIHEDRAL>
-15.3114

>  <SCORE.INTRA.DIHEDRAL.0>
23.5911

>  <SCORE.INTRA.POLAR>
0

>  <SCORE.INTRA.POLAR.0>
0

>  <SCORE.INTRA.REPUL>
0

>  <SCORE.INTRA.REPUL.0>
0

>  <SCORE.INTRA.VDW>
3.5209

>  <SCORE.INTRA.VDW.0>
-1.49175

>  <SCORE.INTRA.norm>
-0.172284

>  <SCORE.RESTR>
0

>  <SCORE.RESTR.CAVITY>
0

>  <SCORE.RESTR.norm>
0

>  <SCORE.SYSTEM>
0

>  <SCORE.SYSTEM.CONST>
0

>  <SCORE.SYSTEM.DIHEDRAL>
0

>  <SCORE.SYSTEM.norm>
0

>  <SCORE.heavy>
24

>  <SCORE.norm>
-1.05075

$$$$
design_1
 OpenBabel05252019093D

 24 26  0  0  0  0  0  0  0  0999 V2000
   41.4208  -35.9041    1.9741 C   0  0  0  0  0  0  0  0  0  0  0  0
   40.9311  -36.6537    3.1671 C   0  0  0  0  0  0  0  0  0  0  0  0
   40.0438  -36.0960    4.0632 C   0  0  0  0  0  0  0  0  0  0  0  0
   39.5975  -36.8057    5.1679 C   0  0  0  0  0  0  0  0  0  0  0  0
   40.0272  -38.0932    5.4059 C   0  0  0  0  0  0  0  0  0  0  0  0
   39.5463  -38.8715    6.6052 C   0  0  0  0  0  0  0  0  0  0  0  0
   40.5261  -38.8067    7.7244 C   0  0  0  0  0  0  0  0  0  0  0  0
   40.0150  -39.4905    8.8856 N   0  0  0  0  0  0  0  0  0  0  0  0
   40.1298  -40.8870    9.0002 C   0  0  0  0  0  0  0  0  0  0  0  0
   40.6798  -41.5567    8.1080 O   0  0  0  0  0  0  0  0  0  0  0  0
   39.5908  -41.5662   10.1946 C   0  0  0  0  0  0  0  0  0  0  0  0
   39.8749  -43.0496   10.0234 C   0  0  0  0  0  0  0  0  0  0  0  0
   40.7559  -43.6761   10.8729 C   0  0  0  0  0  0  0  0  0  0  0  0
   40.7249  -45.2780   10.2814 S   0  0  0  0  0  0  0  0  0  0  0  0
   39.5950  -45.0511    8.9923 C   0  0  0  0  0  0  0  0  0  0  0  0
   39.0943  -46.0493    8.0411 C   0  0  0  0  0  0  0  0  0  0  0  0
   39.6126  -47.3185    8.1051 C   0  0  0  0  0  0  0  0  0  0  0  0
   39.1610  -48.3002    7.2147 C   0  0  0  0  0  0  0  0  0  0  0  0
   38.2039  -47.9909    6.2827 C   0  0  0  0  0  0  0  0  0  0  0  0
   37.7101  -46.7056    6.2521 C   0  0  0  0  0  0  0  0  0  0  0  0
   38.1724  -45.7747    7.1342 N   0  0  0  0  0  0  0  0  0  0  0  0
   39.3198  -43.7695    9.1025 N   0  0  0  0  0  0  0  0  0  0  0  0
   40.9140  -38.6464    4.5075 C   0  0  0  0  0  0  0  0  0  0  0  0
   41.3644  -37.9417    3.4003 C   0  0  0  0  0  0  0  0  0  0  0  0
  1  2  1  0  0  0  0
  2  3  2  0  0  0  0
  3  4  1  0  0  0  0
  4  5  2  0  0  0  0
  5  6  1  0  0  0  0
  5 23  1  0  0  0  0
  6  7  1  0  0  0  0
  7  8  1  0  0  0  0
  8  9  1  0  0  0  0
  9 10  2  0  0  0  0
  9 11  1  0  0  0  0
 11 12  1  0  0  0  0
 12 13  2  0  0  0  0
 13 14  1  0  0  0  0
 14 15  1  0  0  0  0
 15 16  1  0  0  0  0
 15 22  2  0  0  0  0
 16 17  2  0  0  0  0
 17 18  1  0  0  0  0
 18 19  2  0  0  0  0
 19 20  1  0  0  0  0
 20 21  2  0  0  0  0
 21 16  1  0  0  0  0
 22 12  1  0  0  0  0
 23 24  2  0  0  0  0
 24  2  1  0  0  0  0
M  END
>  <CHROM.1>
-97.54026594,176.69256440,82.38376367,-179.67949224,113.55013340,-3.66145803
39.93146049,-41.98751383,7.28434924,1.02214026,-1.33465921,-0.97149113

>  <Name>
design_1

>  <RI>
0

>  <Rbt.Current_Directory>
/home/ziqiaoxu/icml18-jtnn/VAEdesign

>  <Rbt.Executable>
rbdock ($Id: //depot/dev/client3/rdock/2013.1/src/exe/rbdock.cxx#4 $)

>  <Rbt.Library>
libRbt.so (2013.1, Build901 2013/11/27)

>  <Rbt.Parameter_File>
/export/apps/rDock/src/rDock_2013.1_src//data/scripts/dock.prm

>  <Rbt.Receptor>
/home/ziqiaoxu/icml18-jtnn/VAEdesign/targets/RdRp-SARS-CoV-2/pocket_docking.prm

>  <SCORE>
-19.7922

>  <SCORE.INTER>
-18.7951

>  <SCORE.INTER.CONST>
1

>  <SCORE.INTER.POLAR>
-1.18885

>  <SCORE.INTER.REPUL>
0

>  <SCORE.INTER.ROT>
6

>  <SCORE.INTER.VDW>
-26.153

>  <SCORE.INTER.norm>
-0.78313

>  <SCORE.INTRA>
-0.9971

>  <SCORE.INTRA.DIHEDRAL>
-1.19242

>  <SCORE.INTRA.DIHEDRAL.0>
4.63011

>  <SCORE.INTRA.POLAR>
0

>  <SCORE.INTRA.POLAR.0>
0

>  <SCORE.INTRA.REPUL>
0

>  <SCORE.INTRA.REPUL.0>
0

>  <SCORE.INTRA.VDW>
-0.40089

>  <SCORE.INTRA.VDW.0>
-0.579361

>  <SCORE.INTRA.norm>
-0.0415459

>  <SCORE.RESTR>
0

>  <SCORE.RESTR.CAVITY>
0

>  <SCORE.RESTR.norm>
0

>  <SCORE.SYSTEM>
0

>  <SCORE.SYSTEM.CONST>
0

>  <SCORE.SYSTEM.DIHEDRAL>
0

>  <SCORE.SYSTEM.norm>
0

>  <SCORE.heavy>
24

>  <SCORE.norm>
-0.824676

$$$$
design_5
 OpenBabel05252019093D

 25 27  0  0  0  0  0  0  0  0999 V2000
   48.5733  -47.3370    3.0668 C   0  0  0  0  0  0  0  0  0  0  0  0
   47.3115  -46.8873    2.4171 C   0  0  0  0  0  0  0  0  0  0  0  0
   46.9861  -47.0984    1.1054 N   0  0  0  0  0  0  0  0  0  0  0  0
   45.7520  -46.6139    0.8859 C   0  0  0  0  0  0  0  0  0  0  0  0
   44.9238  -46.5553   -0.2346 C   0  0  0  0  0  0  0  0  0  0  0  0
   43.6674  -45.9881   -0.1766 C   0  0  0  0  0  0  0  0  0  0  0  0
   43.2075  -45.4604    1.0209 C   0  0  0  0  0  0  0  0  0  0  0  0
   44.0427  -45.5280    2.1207 C   0  0  0  0  0  0  0  0  0  0  0  0
   45.3037  -46.0928    2.0796 C   0  0  0  0  0  0  0  0  0  0  0  0
   46.2880  -46.2704    3.0203 N   0  0  0  0  0  0  0  0  0  0  0  0
   46.1471  -45.7904    4.3437 C   0  0  0  0  0  0  0  0  0  0  0  0
   45.8085  -44.3728    4.5856 C   0  0  0  0  0  0  0  0  0  0  0  0
   45.9103  -43.8241    5.9245 C   0  0  0  0  0  0  0  0  0  0  0  0
   46.6099  -42.7637    6.0781 O   0  0  0  0  0  0  0  0  0  0  0  0
   45.3212  -44.3101    7.1130 N   0  0  0  0  0  0  0  0  0  0  0  0
   45.5201  -43.6172    8.3776 C   0  0  0  0  0  0  0  0  0  0  0  0
   44.5118  -45.4985    7.1109 C   0  0  0  0  0  0  0  0  0  0  0  0
   43.0575  -45.1953    7.4813 C   0  0  0  0  0  0  0  0  0  0  0  0
   42.2507  -46.2915    7.4812 O   0  0  0  0  0  0  0  0  0  0  0  0
   40.9945  -46.5863    7.8633 C   0  0  0  0  0  0  0  0  0  0  0  0
   40.1839  -47.5728    7.3119 C   0  0  0  0  0  0  0  0  0  0  0  0
   38.9055  -47.8208    7.7570 C   0  0  0  0  0  0  0  0  0  0  0  0
   38.4238  -47.0494    8.7936 C   0  0  0  0  0  0  0  0  0  0  0  0
   39.1981  -46.0598    9.3669 C   0  0  0  0  0  0  0  0  0  0  0  0
   40.4574  -45.8325    8.9119 C   0  0  0  0  0  0  0  0  0  0  0  0
  1  2  1  0  0  0  0
  2  3  2  0  0  0  0
  3  4  1  0  0  0  0
  4  5  2  0  0  0  0
  5  6  1  0  0  0  0
  6  7  2  0  0  0  0
  7  8  1  0  0  0  0
  8  9  2  0  0  0  0
  9 10  1  0  0  0  0
  9  4  1  0  0  0  0
 10 11  1  0  0  0  0
 10  2  1  0  0  0  0
 11 12  1  0  0  0  0
 12 13  1  0  0  0  0
 13 14  2  0  0  0  0
 13 15  1  0  0  0  0
 15 16  1  0  0  0  0
 15 17  1  0  0  0  0
 17 18  1  0  0  0  0
 18 19  1  0  0  0  0
 19 20  1  0  0  0  0
 20 21  2  0  0  0  0
 21 22  1  0  0  0  0
 22 23  2  0  0  0  0
 23 24  1  0  0  0  0
 24 25  2  0  0  0  0
 25 20  1  0  0  0  0
M  END
>  <CHROM.1>
123.70396888,-168.43468590,126.66142041,-115.29936374,179.48210131,170.78807201
151.93635179,44.03326128,-45.81914553,5.01092551,-0.79861205,0.37132943,1.25458571

>  <Name>
design_5

>  <RI>
0

>  <Rbt.Current_Directory>
/home/ziqiaoxu/icml18-jtnn/VAEdesign

>  <Rbt.Executable>
rbdock ($Id: //depot/dev/client3/rdock/2013.1/src/exe/rbdock.cxx#4 $)

>  <Rbt.Library>
libRbt.so (2013.1, Build901 2013/11/27)

>  <Rbt.Parameter_File>
/export/apps/rDock/src/rDock_2013.1_src//data/scripts/dock.prm

>  <Rbt.Receptor>
/home/ziqiaoxu/icml18-jtnn/VAEdesign/targets/RdRp-SARS-CoV-2/pocket_docking.prm

>  <SCORE>
-11.3716

>  <SCORE.INTER>
-13.7511

>  <SCORE.INTER.CONST>
1

>  <SCORE.INTER.POLAR>
0

>  <SCORE.INTER.REPUL>
0

>  <SCORE.INTER.ROT>
7

>  <SCORE.INTER.VDW>
-26.1511

>  <SCORE.INTER.norm>
-0.550043

>  <SCORE.INTRA>
2.3795

>  <SCORE.INTRA.DIHEDRAL>
0.397504

>  <SCORE.INTRA.DIHEDRAL.0>
6.2625

>  <SCORE.INTRA.POLAR>
0

>  <SCORE.INTRA.POLAR.0>
0

>  <SCORE.INTRA.REPUL>
0

>  <SCORE.INTRA.REPUL.0>
0

>  <SCORE.INTRA.VDW>
2.18075

>  <SCORE.INTRA.VDW.0>
-2.19644

>  <SCORE.INTRA.norm>
0.09518

>  <SCORE.RESTR>
0

>  <SCORE.RESTR.CAVITY>
0

>  <SCORE.RESTR.norm>
0

>  <SCORE.SYSTEM>
0

>  <SCORE.SYSTEM.CONST>
0

>  <SCORE.SYSTEM.DIHEDRAL>
0

>  <SCORE.SYSTEM.norm>
0

>  <SCORE.heavy>
25

>  <SCORE.norm>
-0.454863

$$$$
design_11
 OpenBabel05252019093D

 25 27  0  0  0  0  0  0  0  0999 V2000
   40.7598  -38.9149    1.2376 C   0  0  0  0  0  0  0  0  0  0  0  0
   41.8902  -39.6427    1.6494 O   0  0  0  0  0  0  0  0  0  0  0  0
   42.9153  -39.9451    0.7751 C   0  0  0  0  0  0  0  0  0  0  0  0
   43.5756  -38.9003    0.1714 C   0  0  0  0  0  0  0  0  0  0  0  0
   44.5942  -39.1363   -0.6989 C   0  0  0  0  0  0  0  0  0  0  0  0
   44.9522  -40.4265   -0.9655 C   0  0  0  0  0  0  0  0  0  0  0  0
   44.2688  -41.4864   -0.3410 C   0  0  0  0  0  0  0  0  0  0  0  0
   43.2446  -41.2832    0.5358 C   0  0  0  0  0  0  0  0  0  0  0  0
   42.5473  -42.3167    1.1744 N   0  0  0  0  0  0  0  0  0  0  0  0
   42.8219  -43.6963    1.1840 C   0  0  0  0  0  0  0  0  0  0  0  0
   43.7711  -44.2215    0.5970 O   0  0  0  0  0  0  0  0  0  0  0  0
   41.8719  -44.5620    1.9728 C   0  0  0  0  0  0  0  0  0  0  0  0
   42.5703  -45.1765    3.1457 C   0  0  0  0  0  0  0  0  0  0  0  0
   41.6966  -46.0325    3.9346 N   0  0  0  0  0  0  0  0  0  0  0  0
   41.6118  -45.8121    5.3168 C   0  0  0  0  0  0  0  0  0  0  0  0
   42.2889  -44.8563    5.8396 O   0  0  0  0  0  0  0  0  0  0  0  0
   40.7687  -46.6369    6.1657 C   0  0  0  0  0  0  0  0  0  0  0  0
   40.2183  -47.7554    5.5160 C   0  0  0  0  0  0  0  0  0  0  0  0
   39.4718  -48.6655    6.2075 C   0  0  0  0  0  0  0  0  0  0  0  0
   39.2844  -48.4455    7.5392 C   0  0  0  0  0  0  0  0  0  0  0  0
   39.8245  -47.3256    8.2194 C   0  0  0  0  0  0  0  0  0  0  0  0
   39.6184  -47.0979    9.5204 N   0  0  0  0  0  0  0  0  0  0  0  0
   40.4119  -45.6664    9.8321 S   0  0  0  0  0  0  0  0  0  0  0  0
   41.0215  -45.3500    8.2748 C   0  0  0  0  0  0  0  0  0  0  0  0
   40.5634  -46.4228    7.5370 C   0  0  0  0  0  0  0  0  0  0  0  0
  1  2  1  0  0  0  0
  2  3  1  0  0  0  0
  3  4  2  0  0  0  0
  4  5  1  0  0  0  0
  5  6  2  0  0  0  0
  6  7  1  0  0  0  0
  7  8  2  0  0  0  0
  8  9  1  0  0  0  0
  8  3  1  0  0  0  0
  9 10  1  0  0  0  0
 10 11  2  0  0  0  0
 10 12  1  0  0  0  0
 12 13  1  0  0  0  0
 13 14  1  0  0  0  0
 14 15  1  0  0  0  0
 15 16  2  0  0  0  0
 15 17  1  0  0  0  0
 17 18  2  0  0  0  0
 18 19  1  0  0  0  0
 19 20  2  0  0  0  0
 20 21  1  0  0  0  0
 21 22  2  0  0  0  0
 22 23  1  0  0  0  0
 23 24  1  0  0  0  0
 24 25  2  0  0  0  0
 25 17  1  0  0  0  0
 25 21  1  0  0  0  0
M  END
>  <CHROM.1>
59.54995615,-172.04268902,-114.13168471,-179.51025393,-127.66089492,8.41337214
41.79671560,-44.03237678,4.04290961,0.55262260,1.21318104,0.10244901

>  <Name>
design_11

>  <RI>
0

>  <Rbt.Current_Directory>
/home/ziqiaoxu/icml18-jtnn/VAEdesign

>  <Rbt.Executable>
rbdock ($Id: //depot/dev/client3/rdock/2013.1/src/exe/rbdock.cxx#4 $)

>  <Rbt.Library>
libRbt.so (2013.1, Build901 2013/11/27)

>  <Rbt.Parameter_File>
/export/apps/rDock/src/rDock_2013.1_src//data/scripts/dock.prm

>  <Rbt.Receptor>
/home/ziqiaoxu/icml18-jtnn/VAEdesign/targets/RdRp-SARS-CoV-2/pocket_docking.prm

>  <SCORE>
-21.3373

>  <SCORE.INTER>
-18.4276

>  <SCORE.INTER.CONST>
1

>  <SCORE.INTER.POLAR>
-1.08148

>  <SCORE.INTER.REPUL>
0

>  <SCORE.INTER.ROT>
6

>  <SCORE.INTER.VDW>
-26.1505

>  <SCORE.INTER.norm>
-0.737102

>  <SCORE.INTRA>
-2.90978

>  <SCORE.INTRA.DIHEDRAL>
0.61644

>  <SCORE.INTRA.DIHEDRAL.0>
7.29546

>  <SCORE.INTRA.POLAR>
0.0157485

>  <SCORE.INTRA.POLAR.0>
-0.0404071

>  <SCORE.INTRA.REPUL>
0

>  <SCORE.INTRA.REPUL.0>
0

>  <SCORE.INTRA.VDW>
-3.27155

>  <SCORE.INTRA.VDW.0>
3.12872

>  <SCORE.INTRA.norm>
-0.116391

>  <SCORE.RESTR>
0

>  <SCORE.RESTR.CAVITY>
0

>  <SCORE.RESTR.norm>
0

>  <SCORE.SYSTEM>
0

>  <SCORE.SYSTEM.CONST>
0

>  <SCORE.SYSTEM.DIHEDRAL>
0

>  <SCORE.SYSTEM.norm>
0

>  <SCORE.heavy>
25

>  <SCORE.norm>
-0.853494

$$$$
design_16
 OpenBabel05252019093D

 25 27  0  0  0  0  0  0  0  0999 V2000
   45.0534  -46.1585   -0.3128 C   0  0  0  0  0  0  0  0  0  0  0  0
   45.9546  -46.5214    0.8286 C   0  0  0  0  0  0  0  0  0  0  0  0
   47.1270  -47.1873    0.5952 C   0  0  0  0  0  0  0  0  0  0  0  0
   47.9108  -47.4922    1.6807 C   0  0  0  0  0  0  0  0  0  0  0  0
   47.5315  -47.1384    2.9817 C   0  0  0  0  0  0  0  0  0  0  0  0
   46.3606  -46.4710    3.2387 C   0  0  0  0  0  0  0  0  0  0  0  0
   45.9032  -46.0928    4.5135 N   0  0  0  0  0  0  0  0  0  0  0  0
   44.6860  -45.5172    4.8576 C   0  0  0  0  0  0  0  0  0  0  0  0
   43.8014  -45.2494    3.9960 O   0  0  0  0  0  0  0  0  0  0  0  0
   44.3825  -45.1952    6.2556 C   0  0  0  0  0  0  0  0  0  0  0  0
   45.3020  -44.6798    7.1140 C   0  0  0  0  0  0  0  0  0  0  0  0
   44.9900  -44.3728    8.4451 C   0  0  0  0  0  0  0  0  0  0  0  0
   43.7034  -44.6106    8.8724 C   0  0  0  0  0  0  0  0  0  0  0  0
   42.7316  -45.1314    8.0468 C   0  0  0  0  0  0  0  0  0  0  0  0
   41.0916  -45.4215    8.6352 S   0  0  0  0  0  0  0  0  0  0  0  0
   40.3094  -44.1618    8.3152 O   0  0  0  0  0  0  0  0  0  0  0  0
   41.0900  -45.5875   10.1195 O   0  0  0  0  0  0  0  0  0  0  0  0
   40.3380  -46.7153    7.8250 N   0  0  0  0  0  0  0  0  0  0  0  0
   40.1365  -46.4945    6.4269 C   0  0  0  0  0  0  0  0  0  0  0  0
   39.6456  -47.7662    5.7776 C   0  0  0  0  0  0  0  0  0  0  0  0
   39.5849  -48.8773    6.8112 C   0  0  0  0  0  0  0  0  0  0  0  0
   38.6119  -48.4282    7.8810 C   0  0  0  0  0  0  0  0  0  0  0  0
   39.1851  -47.1859    8.5260 C   0  0  0  0  0  0  0  0  0  0  0  0
   43.0914  -45.4138    6.7523 C   0  0  0  0  0  0  0  0  0  0  0  0
   45.5929  -46.1815    2.0928 C   0  0  0  0  0  0  0  0  0  0  0  0
  1  2  1  0  0  0  0
  2  3  2  0  0  0  0
  3  4  1  0  0  0  0
  4  5  2  0  0  0  0
  5  6  1  0  0  0  0
  6  7  1  0  0  0  0
  6 25  2  0  0  0  0
  7  8  1  0  0  0  0
  8  9  2  0  0  0  0
  8 10  1  0  0  0  0
 10 11  2  0  0  0  0
 11 12  1  0  0  0  0
 12 13  2  0  0  0  0
 13 14  1  0  0  0  0
 14 15  1  0  0  0  0
 14 24  2  0  0  0  0
 15 16  2  0  0  0  0
 15 17  2  0  0  0  0
 15 18  1  0  0  0  0
 18 19  1  0  0  0  0
 19 20  1  0  0  0  0
 20 21  1  0  0  0  0
 21 22  1  0  0  0  0
 22 23  1  0  0  0  0
 23 18  1  0  0  0  0
 24 10  1  0  0  0  0
 25  2  1  0  0  0  0
M  END
>  <CHROM.1>
-174.20619322,39.60120776,92.46864230,-63.62943317,43.14458527,-46.12323258
5.82144420,0.73740839,-0.40334106,-2.02253774

>  <Name>
design_16

>  <RI>
0

>  <Rbt.Current_Directory>
/home/ziqiaoxu/icml18-jtnn/VAEdesign

>  <Rbt.Executable>
rbdock ($Id: //depot/dev/client3/rdock/2013.1/src/exe/rbdock.cxx#4 $)

>  <Rbt.Library>
libRbt.so (2013.1, Build901 2013/11/27)

>  <Rbt.Parameter_File>
/export/apps/rDock/src/rDock_2013.1_src//data/scripts/dock.prm

>  <Rbt.Receptor>
/home/ziqiaoxu/icml18-jtnn/VAEdesign/targets/RdRp-SARS-CoV-2/pocket_docking.prm

>  <SCORE>
-16.4301

>  <SCORE.INTER>
-18.4838

>  <SCORE.INTER.CONST>
1

>  <SCORE.INTER.POLAR>
-0.509862

>  <SCORE.INTER.REPUL>
0

>  <SCORE.INTER.ROT>
4

>  <SCORE.INTER.VDW>
-26.1502

>  <SCORE.INTER.norm>
-0.739351

>  <SCORE.INTRA>
2.05371

>  <SCORE.INTRA.DIHEDRAL>
4.19969

>  <SCORE.INTRA.DIHEDRAL.0>
2.61387

>  <SCORE.INTRA.POLAR>
0

>  <SCORE.INTRA.POLAR.0>
0

>  <SCORE.INTRA.REPUL>
0

>  <SCORE.INTRA.REPUL.0>
0

>  <SCORE.INTRA.VDW>
-0.0461358

>  <SCORE.INTRA.VDW.0>
-1.64433

>  <SCORE.INTRA.norm>
0.0821484

>  <SCORE.RESTR>
0

>  <SCORE.RESTR.CAVITY>
0

>  <SCORE.RESTR.norm>
0

>  <SCORE.SYSTEM>
0

>  <SCORE.SYSTEM.CONST>
0

>  <SCORE.SYSTEM.DIHEDRAL>
0

>  <SCORE.SYSTEM.norm>
0

>  <SCORE.heavy>
25

>  <SCORE.norm>
-0.657203

$$$$
design_8
 OpenBabel05252019093D

 25 26  0  0  0  0  0  0  0  0999 V2000
   45.2145  -43.5773    0.2942 C   0  0  0  0  0  0  0  0  0  0  0  0
   44.0047  -42.8271    0.6414 C   0  0  0  0  0  0  0  0  0  0  0  0
   43.9369  -41.4913    0.2990 C   0  0  0  0  0  0  0  0  0  0  0  0
   42.8229  -40.7366    0.5676 C   0  0  0  0  0  0  0  0  0  0  0  0
   41.7534  -41.3115    1.1862 C   0  0  0  0  0  0  0  0  0  0  0  0
   41.8294  -42.6584    1.5293 C   0  0  0  0  0  0  0  0  0  0  0  0
   42.9218  -43.4580    1.2827 C   0  0  0  0  0  0  0  0  0  0  0  0
   43.0419  -44.8451    1.6920 C   0  0  2  0  0  0  0  0  0  0  0  0
   43.8498  -45.1291    2.9478 C   0  0  0  0  0  0  0  0  0  0  0  0
   43.2440  -45.2956    4.2179 C   0  0  0  0  0  0  0  0  0  0  0  0
   43.5729  -44.7563    5.3500 O   0  0  0  0  0  0  0  0  0  0  0  0
   42.0969  -46.1697    4.3906 N   0  0  0  0  0  0  0  0  0  0  0  0
   41.4059  -46.4488    5.5739 C   0  0  0  0  0  0  0  0  0  0  0  0
   40.4029  -47.4567    5.4562 C   0  0  0  0  0  0  0  0  0  0  0  0
   39.6455  -47.8617    6.5220 C   0  0  0  0  0  0  0  0  0  0  0  0
   39.8604  -47.2767    7.7392 C   0  0  0  0  0  0  0  0  0  0  0  0
   40.8243  -46.2908    7.9048 C   0  0  0  0  0  0  0  0  0  0  0  0
   41.0328  -45.7287    9.2257 C   0  0  0  0  0  0  0  0  0  0  0  0
   40.2136  -46.2114   10.2893 N   0  0  0  0  0  0  0  0  0  0  0  0
   41.8794  -44.8558    9.4826 O   0  0  0  0  0  0  0  0  0  0  0  0
   41.5638  -45.9126    6.8047 C   0  0  0  0  0  0  0  0  0  0  0  0
   43.3898  -45.7657    0.7204 N   0  0  0  0  0  0  0  0  0  0  0  0
   43.7381  -46.6879   -0.2528 C   0  0  0  0  0  0  0  0  0  0  0  0
   45.0503  -46.8917   -0.7696 N   0  0  0  0  0  0  0  0  0  0  0  0
   42.8940  -47.4766   -0.8219 O   0  0  0  0  0  0  0  0  0  0  0  0
  1  2  1  0  0  0  0
  2  3  2  0  0  0  0
  3  4  1  0  0  0  0
  4  5  2  0  0  0  0
  5  6  1  0  0  0  0
  6  7  2  0  0  0  0
  7  8  1  0  0  0  0
  7  2  1  0  0  0  0
  8  9  1  1  0  0  0
  8 22  1  0  0  0  0
  9 10  1  0  0  0  0
 10 11  2  0  0  0  0
 10 12  1  0  0  0  0
 12 13  1  0  0  0  0
 13 14  2  0  0  0  0
 14 15  1  0  0  0  0
 15 16  2  0  0  0  0
 16 17  1  0  0  0  0
 17 18  1  0  0  0  0
 17 21  2  0  0  0  0
 18 19  1  0  0  0  0
 18 20  2  0  0  0  0
 21 13  1  0  0  0  0
 22 23  1  0  0  0  0
 23 24  1  0  0  0  0
 23 25  2  0  0  0  0
M  END
>  <CHROM.1>
77.05982984,96.55292928,-132.32842781,-173.79412216,-0.90015231,-110.87215463
42.44153910,-45.12880199,3.69004069,0.04767020,1.23581479,0.22011925

>  <Name>
design_8

>  <RI>
0

>  <Rbt.Current_Directory>
/home/ziqiaoxu/icml18-jtnn/VAEdesign

>  <Rbt.Executable>
rbdock ($Id: //depot/dev/client3/rdock/2013.1/src/exe/rbdock.cxx#4 $)

>  <Rbt.Library>
libRbt.so (2013.1, Build901 2013/11/27)

>  <Rbt.Parameter_File>
/export/apps/rDock/src/rDock_2013.1_src//data/scripts/dock.prm

>  <Rbt.Receptor>
/home/ziqiaoxu/icml18-jtnn/VAEdesign/targets/RdRp-SARS-CoV-2/pocket_docking.prm

>  <SCORE>
-30.8823

>  <SCORE.INTER>
-27.5746

>  <SCORE.INTER.CONST>
1

>  <SCORE.INTER.POLAR>
-3.88777

>  <SCORE.INTER.REPUL>
0.0786981

>  <SCORE.INTER.ROT>
6

>  <SCORE.INTER.VDW>
-26.1497

>  <SCORE.INTER.norm>
-1.10299

>  <SCORE.INTRA>
-3.30766

>  <SCORE.INTRA.DIHEDRAL>
-3.99466

>  <SCORE.INTRA.DIHEDRAL.0>
11.2574

>  <SCORE.INTRA.POLAR>
0

>  <SCORE.INTRA.POLAR.0>
0

>  <SCORE.INTRA.REPUL>
0

>  <SCORE.INTRA.REPUL.0>
0

>  <SCORE.INTRA.VDW>
-1.31033

>  <SCORE.INTRA.VDW.0>
-0.550651

>  <SCORE.INTRA.norm>
-0.132306

>  <SCORE.RESTR>
0

>  <SCORE.RESTR.CAVITY>
0

>  <SCORE.RESTR.norm>
0

>  <SCORE.SYSTEM>
0

>  <SCORE.SYSTEM.CONST>
0

>  <SCORE.SYSTEM.DIHEDRAL>
0

>  <SCORE.SYSTEM.norm>
0

>  <SCORE.heavy>
25

>  <SCORE.norm>
-1.23529

$$$$
design_17
 OpenBabel05252019093D

 21 22  0  0  0  0  0  0  0  0999 V2000
   38.0305  -47.3616    8.6470 C   0  0  0  0  0  0  0  0  0  0  0  0
   39.3574  -46.6955    8.6325 C   0  0  0  0  0  0  0  0  0  0  0  0
   39.7804  -45.8835    9.6848 C   0  0  0  0  0  0  0  0  0  0  0  0
   41.0136  -45.2696    9.6611 C   0  0  0  0  0  0  0  0  0  0  0  0
   41.5611  -44.2405   10.9847 Cl  0  0  0  0  0  0  0  0  0  0  0  0
   41.8237  -45.4787    8.5659 C   0  0  0  0  0  0  0  0  0  0  0  0
   41.3938  -46.2801    7.5382 C   0  0  0  0  0  0  0  0  0  0  0  0
   40.1646  -46.9075    7.5344 C   0  0  0  0  0  0  0  0  0  0  0  0
   39.6202  -47.9293    6.2213 S   0  0  0  0  0  0  0  0  0  0  0  0
   40.6429  -47.7965    5.1190 O   0  0  0  0  0  0  0  0  0  0  0  0
   39.6385  -49.3793    6.6189 O   0  0  0  0  0  0  0  0  0  0  0  0
   38.0690  -47.4328    5.6957 N   0  0  0  0  0  0  0  0  0  0  0  0
   37.5709  -46.1308    5.7775 C   0  0  0  0  0  0  0  0  0  0  0  0
   38.4025  -45.0880    6.1368 C   0  0  0  0  0  0  0  0  0  0  0  0
   37.9731  -43.7920    6.2330 C   0  0  0  0  0  0  0  0  0  0  0  0
   36.6407  -43.4756    5.9622 C   0  0  0  0  0  0  0  0  0  0  0  0
   36.1975  -42.0990    6.0673 C   0  0  0  0  0  0  0  0  0  0  0  0
   34.8383  -41.7654    5.9233 N   0  0  0  0  0  0  0  0  0  0  0  0
   37.0368  -41.2037    6.2883 O   0  0  0  0  0  0  0  0  0  0  0  0
   35.8055  -44.5039    5.6042 C   0  0  0  0  0  0  0  0  0  0  0  0
   36.2582  -45.8176    5.5109 C   0  0  0  0  0  0  0  0  0  0  0  0
  1  2  1  0  0  0  0
  2  3  2  0  0  0  0
  3  4  1  0  0  0  0
  4  5  1  0  0  0  0
  4  6  2  0  0  0  0
  6  7  1  0  0  0  0
  7  8  2  0  0  0  0
  8  9  1  0  0  0  0
  8  2  1  0  0  0  0
  9 10  2  0  0  0  0
  9 11  2  0  0  0  0
  9 12  1  0  0  0  0
 12 13  1  0  0  0  0
 13 14  2  0  0  0  0
 14 15  1  0  0  0  0
 15 16  2  0  0  0  0
 16 17  1  0  0  0  0
 16 20  1  0  0  0  0
 17 18  1  0  0  0  0
 17 19  2  0  0  0  0
 20 21  2  0  0  0  0
 21 13  1  0  0  0  0
M  END
>  <CHROM.1>
172.49021395,28.54562688,9.16756617,-174.02854216,38.88218269,-45.53170520
7.24419874,0.25145653,0.72478374,-2.62093576

>  <Name>
design_17

>  <RI>
0

>  <Rbt.Current_Directory>
/home/ziqiaoxu/icml18-jtnn/VAEdesign

>  <Rbt.Executable>
rbdock ($Id: //depot/dev/client3/rdock/2013.1/src/exe/rbdock.cxx#4 $)

>  <Rbt.Library>
libRbt.so (2013.1, Build901 2013/11/27)

>  <Rbt.Parameter_File>
/export/apps/rDock/src/rDock_2013.1_src//data/scripts/dock.prm

>  <Rbt.Receptor>
/home/ziqiaoxu/icml18-jtnn/VAEdesign/targets/RdRp-SARS-CoV-2/pocket_docking.prm

>  <SCORE>
-22.4603

>  <SCORE.INTER>
-20.0738

>  <SCORE.INTER.CONST>
1

>  <SCORE.INTER.POLAR>
-0.997688

>  <SCORE.INTER.REPUL>
0.0135959

>  <SCORE.INTER.ROT>
4

>  <SCORE.INTER.VDW>
-26.1497

>  <SCORE.INTER.norm>
-0.955896

>  <SCORE.INTRA>
-2.38648

>  <SCORE.INTRA.DIHEDRAL>
-6.02817

>  <SCORE.INTRA.DIHEDRAL.0>
8.88924

>  <SCORE.INTRA.POLAR>
0

>  <SCORE.INTRA.POLAR.0>
0

>  <SCORE.INTRA.REPUL>
0

>  <SCORE.INTRA.REPUL.0>
0

>  <SCORE.INTRA.VDW>
0.627608

>  <SCORE.INTRA.VDW.0>
-2.44158

>  <SCORE.INTRA.norm>
-0.113642

>  <SCORE.RESTR>
0

>  <SCORE.RESTR.CAVITY>
0

>  <SCORE.RESTR.norm>
0

>  <SCORE.SYSTEM>
0

>  <SCORE.SYSTEM.CONST>
0

>  <SCORE.SYSTEM.DIHEDRAL>
0

>  <SCORE.SYSTEM.norm>
0

>  <SCORE.heavy>
21

>  <SCORE.norm>
-1.06954

$$$$
design_15
 OpenBabel05252019093D

 27 29  0  0  0  0  0  0  0  0999 V2000
   41.2882  -43.2750    1.4099 N   0  0  0  0  0  0  0  0  0  0  0  0
   41.5624  -44.1868    2.5066 C   0  0  0  0  0  0  0  0  0  0  0  0
   40.9852  -44.0100    3.5814 O   0  0  0  0  0  0  0  0  0  0  0  0
   42.5125  -45.2434    2.2266 C   0  0  0  0  0  0  0  0  0  0  0  0
   44.1183  -44.7812    1.6083 S   0  0  0  0  0  0  0  0  0  0  0  0
   45.4510  -45.7933    2.1566 C   0  0  0  0  0  0  0  0  0  0  0  0
   46.2279  -46.4411    1.2028 C   0  0  0  0  0  0  0  0  0  0  0  0
   47.3062  -47.2196    1.5557 C   0  0  0  0  0  0  0  0  0  0  0  0
   47.5974  -47.3388    2.8830 C   0  0  0  0  0  0  0  0  0  0  0  0
   46.8662  -46.7217    3.8587 C   0  0  0  0  0  0  0  0  0  0  0  0
   45.7622  -45.9235    3.5040 C   0  0  0  0  0  0  0  0  0  0  0  0
   45.0769  -45.3051    4.5979 C   0  0  0  0  0  0  0  0  0  0  0  0
   44.3971  -44.2321    4.2948 O   0  0  0  0  0  0  0  0  0  0  0  0
   44.9989  -45.6382    5.9493 N   0  0  0  0  0  0  0  0  0  0  0  0
   44.2115  -44.8539    6.9008 C   0  0  0  0  0  0  0  0  0  0  0  0
   42.9490  -45.5338    7.2970 C   0  0  0  0  0  0  0  0  0  0  0  0
   42.3047  -45.5451    8.4783 N   0  0  0  0  0  0  0  0  0  0  0  0
   41.2343  -46.2737    8.3805 O   0  0  0  0  0  0  0  0  0  0  0  0
   41.1303  -46.7576    7.1722 C   0  0  0  0  0  0  0  0  0  0  0  0
   40.0551  -47.6527    6.6012 C   0  0  0  0  0  0  0  0  0  0  0  0
   38.8842  -46.8575    6.1339 C   0  0  0  0  0  0  0  0  0  0  0  0
   38.8554  -46.1907    4.9290 C   0  0  0  0  0  0  0  0  0  0  0  0
   37.7381  -45.4733    4.5507 C   0  0  0  0  0  0  0  0  0  0  0  0
   36.6033  -45.3746    5.3258 C   0  0  0  0  0  0  0  0  0  0  0  0
   36.6242  -46.0404    6.5361 C   0  0  0  0  0  0  0  0  0  0  0  0
   37.7345  -46.7583    6.9226 C   0  0  0  0  0  0  0  0  0  0  0  0
   42.1894  -46.3093    6.4768 N   0  0  0  0  0  0  0  0  0  0  0  0
  1  2  1  0  0  0  0
  2  3  2  0  0  0  0
  2  4  1  0  0  0  0
  4  5  1  0  0  0  0
  5  6  1  0  0  0  0
  6  7  2  0  0  0  0
  7  8  1  0  0  0  0
  8  9  2  0  0  0  0
  9 10  1  0  0  0  0
 10 11  2  0  0  0  0
 11 12  1  0  0  0  0
 11  6  1  0  0  0  0
 12 13  2  0  0  0  0
 12 14  1  0  0  0  0
 14 15  1  0  0  0  0
 15 16  1  0  0  0  0
 16 17  2  0  0  0  0
 17 18  1  0  0  0  0
 18 19  1  0  0  0  0
 19 20  1  0  0  0  0
 19 27  2  0  0  0  0
 20 21  1  0  0  0  0
 21 22  2  0  0  0  0
 22 23  1  0  0  0  0
 23 24  2  0  0  0  0
 24 25  1  0  0  0  0
 25 26  2  0  0  0  0
 26 21  1  0  0  0  0
 27 16  1  0  0  0  0
M  END
>  <CHROM.1>
54.70784357,145.17367036,121.70365171,-22.53648688,105.58890628,144.69762769
84.38054517,79.67222829,42.46945321,-45.67907424,4.56475462,0.46578035,0.11782830
-1.29198592

>  <Name>
design_15

>  <RI>
0

>  <Rbt.Current_Directory>
/home/ziqiaoxu/icml18-jtnn/VAEdesign

>  <Rbt.Executable>
rbdock ($Id: //depot/dev/client3/rdock/2013.1/src/exe/rbdock.cxx#4 $)

>  <Rbt.Library>
libRbt.so (2013.1, Build901 2013/11/27)

>  <Rbt.Parameter_File>
/export/apps/rDock/src/rDock_2013.1_src//data/scripts/dock.prm

>  <Rbt.Receptor>
/home/ziqiaoxu/icml18-jtnn/VAEdesign/targets/RdRp-SARS-CoV-2/pocket_docking.prm

>  <SCORE>
-21.3937

>  <SCORE.INTER>
-21.3752

>  <SCORE.INTER.CONST>
1

>  <SCORE.INTER.POLAR>
-2.5387

>  <SCORE.INTER.REPUL>
0

>  <SCORE.INTER.ROT>
8

>  <SCORE.INTER.VDW>
-26.1436

>  <SCORE.INTER.norm>
-0.791674

>  <SCORE.INTRA>
-0.0184503

>  <SCORE.INTRA.DIHEDRAL>
1.12513

>  <SCORE.INTRA.DIHEDRAL.0>
10.2663

>  <SCORE.INTRA.POLAR>
0

>  <SCORE.INTRA.POLAR.0>
0

>  <SCORE.INTRA.REPUL>
0

>  <SCORE.INTRA.REPUL.0>
0

>  <SCORE.INTRA.VDW>
-0.581013

>  <SCORE.INTRA.VDW.0>
-2.84961

>  <SCORE.INTRA.norm>
-0.000683345

>  <SCORE.RESTR>
0

>  <SCORE.RESTR.CAVITY>
0

>  <SCORE.RESTR.norm>
0

>  <SCORE.SYSTEM>
0

>  <SCORE.SYSTEM.CONST>
0

>  <SCORE.SYSTEM.DIHEDRAL>
0

>  <SCORE.SYSTEM.norm>
0

>  <SCORE.heavy>
27

>  <SCORE.norm>
-0.792358

$$$$
design_0
 OpenBabel05252019093D

 20 21  0  0  0  0  0  0  0  0999 V2000
   36.1860  -42.5391    5.8830 C   0  0  0  0  0  0  0  0  0  0  0  0
   36.6949  -43.9324    5.9527 C   0  0  0  0  0  0  0  0  0  0  0  0
   35.8504  -44.9183    5.4518 C   0  0  0  0  0  0  0  0  0  0  0  0
   36.2757  -46.2350    5.4923 C   0  0  0  0  0  0  0  0  0  0  0  0
   37.4949  -46.5968    6.0069 C   0  0  0  0  0  0  0  0  0  0  0  0
   37.8542  -47.9692    6.0108 N   0  0  0  0  0  0  0  0  0  0  0  0
   38.9931  -48.6413    7.0895 S   0  0  0  0  0  0  0  0  0  0  0  0
   39.9884  -49.5264    6.3922 O   0  0  0  0  0  0  0  0  0  0  0  0
   38.2724  -49.4819    8.0993 O   0  0  0  0  0  0  0  0  0  0  0  0
   39.8281  -47.3787    8.0062 C   0  0  0  0  0  0  0  0  0  0  0  0
   39.2687  -46.9147    9.1739 C   0  0  0  0  0  0  0  0  0  0  0  0
   39.9266  -45.9320    9.8798 C   0  0  0  0  0  0  0  0  0  0  0  0
   41.1259  -45.3840    9.4753 C   0  0  0  0  0  0  0  0  0  0  0  0
   41.8214  -44.3138   10.2641 C   0  0  0  0  0  0  0  0  0  0  0  0
   41.6789  -45.8555    8.3033 C   0  0  0  0  0  0  0  0  0  0  0  0
   43.1985  -45.1942    7.7458 Cl  0  0  0  0  0  0  0  0  0  0  0  0
   41.0269  -46.8531    7.5716 C   0  0  0  0  0  0  0  0  0  0  0  0
   38.3131  -45.6056    6.4964 C   0  0  0  0  0  0  0  0  0  0  0  0
   37.9051  -44.2749    6.4655 C   0  0  0  0  0  0  0  0  0  0  0  0
   38.7774  -43.1843    6.9913 C   0  0  0  0  0  0  0  0  0  0  0  0
  1  2  1  0  0  0  0
  2  3  2  0  0  0  0
  3  4  1  0  0  0  0
  4  5  2  0  0  0  0
  5  6  1  0  0  0  0
  5 18  1  0  0  0  0
  6  7  1  0  0  0  0
  7  8  2  0  0  0  0
  7  9  2  0  0  0  0
  7 10  1  0  0  0  0
 10 11  2  0  0  0  0
 11 12  1  0  0  0  0
 12 13  2  0  0  0  0
 13 14  1  0  0  0  0
 13 15  1  0  0  0  0
 15 16  1  0  0  0  0
 15 17  2  0  0  0  0
 17 10  1  0  0  0  0
 18 19  2  0  0  0  0
 19 20  1  0  0  0  0
 19  2  1  0  0  0  0
M  END
>  <CHROM.1>
-156.11792865,-132.99818532,86.88829524,39.31366637,-46.17352279,7.34602192
-3.05263965,0.47927058,-3.12702349

>  <Name>
design_0

>  <RI>
0

>  <Rbt.Current_Directory>
/home/ziqiaoxu/icml18-jtnn/VAEdesign

>  <Rbt.Executable>
rbdock ($Id: //depot/dev/client3/rdock/2013.1/src/exe/rbdock.cxx#4 $)

>  <Rbt.Library>
libRbt.so (2013.1, Build901 2013/11/27)

>  <Rbt.Parameter_File>
/export/apps/rDock/src/rDock_2013.1_src//data/scripts/dock.prm

>  <Rbt.Receptor>
/home/ziqiaoxu/icml18-jtnn/VAEdesign/targets/RdRp-SARS-CoV-2/pocket_docking.prm

>  <SCORE>
-19.9516

>  <SCORE.INTER>
-18.0501

>  <SCORE.INTER.CONST>
1

>  <SCORE.INTER.POLAR>
-0.0902999

>  <SCORE.INTER.REPUL>
0

>  <SCORE.INTER.ROT>
3

>  <SCORE.INTER.VDW>
-26.1431

>  <SCORE.INTER.norm>
-0.902506

>  <SCORE.INTRA>
-1.90151

>  <SCORE.INTRA.DIHEDRAL>
-4.30267

>  <SCORE.INTRA.DIHEDRAL.0>
8.80179

>  <SCORE.INTRA.POLAR>
0

>  <SCORE.INTRA.POLAR.0>
0

>  <SCORE.INTRA.REPUL>
0

>  <SCORE.INTRA.REPUL.0>
0

>  <SCORE.INTRA.VDW>
0.249828

>  <SCORE.INTRA.VDW.0>
-2.16371

>  <SCORE.INTRA.norm>
-0.0950754

>  <SCORE.RESTR>
0

>  <SCORE.RESTR.CAVITY>
0

>  <SCORE.RESTR.norm>
0

>  <SCORE.SYSTEM>
0

>  <SCORE.SYSTEM.CONST>
0

>  <SCORE.SYSTEM.DIHEDRAL>
0

>  <SCORE.SYSTEM.norm>
0

>  <SCORE.heavy>
20

>  <SCORE.norm>
-0.997582

$$$$
design_4
 OpenBabel05252019093D

 28 30  0  0  0  0  0  0  0  0999 V2000
   39.5206  -46.6914    9.6854 N   0  0  0  0  0  0  0  0  0  0  0  0
   39.6420  -46.5018    8.2857 C   0  0  0  0  0  0  0  0  0  0  0  0
   38.9843  -45.5827    7.7473 O   0  0  0  0  0  0  0  0  0  0  0  0
   40.5142  -47.3474    7.4412 C   0  0  0  0  0  0  0  0  0  0  0  0
   39.8587  -47.6266    6.1196 C   0  0  0  0  0  0  0  0  0  0  0  0
   40.1628  -46.5870    5.1108 C   0  0  0  0  0  0  0  0  0  0  0  0
   41.4608  -46.2009    4.8762 C   0  0  0  0  0  0  0  0  0  0  0  0
   41.6914  -45.2268    3.9243 C   0  0  0  0  0  0  0  0  0  0  0  0
   40.6808  -44.6421    3.2179 C   0  0  0  0  0  0  0  0  0  0  0  0
   40.8374  -43.6193    2.2526 N   0  0  0  0  0  0  0  0  0  0  0  0
   41.7433  -42.5499    2.3732 C   0  0  0  0  0  0  0  0  0  0  0  0
   42.4708  -42.4251    3.3692 O   0  0  0  0  0  0  0  0  0  0  0  0
   41.8629  -41.5505    1.3377 N   0  0  0  0  0  0  0  0  0  0  0  0
   42.7940  -40.4840    1.5019 C   0  0  0  0  0  0  0  0  0  0  0  0
   43.7279  -40.3568    0.3530 C   0  0  0  0  0  0  0  0  0  0  0  0
   44.4221  -41.4521   -0.0974 C   0  0  0  0  0  0  0  0  0  0  0  0
   45.3011  -41.3697   -1.1669 C   0  0  0  0  0  0  0  0  0  0  0  0
   45.4585  -40.1380   -1.7718 C   0  0  0  0  0  0  0  0  0  0  0  0
   44.7794  -39.0267   -1.3447 C   0  0  0  0  0  0  0  0  0  0  0  0
   43.9152  -39.1477   -0.2797 C   0  0  0  0  0  0  0  0  0  0  0  0
   42.1094  -39.1652    1.7207 C   0  0  0  0  0  0  0  0  0  0  0  0
   40.8525  -38.8978    1.2211 C   0  0  0  0  0  0  0  0  0  0  0  0
   40.2271  -37.6672    1.4321 C   0  0  0  0  0  0  0  0  0  0  0  0
   40.8561  -36.6737    2.1538 C   0  0  0  0  0  0  0  0  0  0  0  0
   42.1082  -36.9424    2.6503 C   0  0  0  0  0  0  0  0  0  0  0  0
   42.7222  -38.1545    2.4416 C   0  0  0  0  0  0  0  0  0  0  0  0
   39.3561  -45.0461    3.4668 C   0  0  0  0  0  0  0  0  0  0  0  0
   39.1336  -46.0113    4.4104 C   0  0  0  0  0  0  0  0  0  0  0  0
  1  2  1  0  0  0  0
  2  3  2  0  0  0  0
  2  4  1  0  0  0  0
  4  5  1  0  0  0  0
  5  6  1  0  0  0  0
  6  7  2  0  0  0  0
  7  8  1  0  0  0  0
  8  9  2  0  0  0  0
  9 10  1  0  0  0  0
  9 27  1  0  0  0  0
 10 11  1  0  0  0  0
 11 12  2  0  0  0  0
 11 13  1  0  0  0  0
 13 14  1  0  0  0  0
 14 15  1  0  0  0  0
 14 21  1  0  0  0  0
 15 16  2  0  0  0  0
 16 17  1  0  0  0  0
 17 18  2  0  0  0  0
 18 19  1  0  0  0  0
 19 20  2  0  0  0  0
 20 15  1  0  0  0  0
 21 22  2  0  0  0  0
 22 23  1  0  0  0  0
 23 24  2  0  0  0  0
 24 25  1  0  0  0  0
 25 26  2  0  0  0  0
 26 21  1  0  0  0  0
 27 28  2  0  0  0  0
 28  6  1  0  0  0  0
M  END
>  <CHROM.1>
141.51209339,88.36570813,50.50085565,-39.12610959,126.35881536,-51.31279334
-27.92523998,41.64308444,-42.47193007,3.03749706,2.13810879,-0.91926526,2.89401872

>  <Name>
design_4

>  <RI>
0

>  <Rbt.Current_Directory>
/home/ziqiaoxu/icml18-jtnn/VAEdesign

>  <Rbt.Executable>
rbdock ($Id: //depot/dev/client3/rdock/2013.1/src/exe/rbdock.cxx#4 $)

>  <Rbt.Library>
libRbt.so (2013.1, Build901 2013/11/27)

>  <Rbt.Parameter_File>
/export/apps/rDock/src/rDock_2013.1_src//data/scripts/dock.prm

>  <Rbt.Receptor>
/home/ziqiaoxu/icml18-jtnn/VAEdesign/targets/RdRp-SARS-CoV-2/pocket_docking.prm

>  <SCORE>
-24.3026

>  <SCORE.INTER>
-27.142

>  <SCORE.INTER.CONST>
1

>  <SCORE.INTER.POLAR>
-3.942

>  <SCORE.INTER.REPUL>
0

>  <SCORE.INTER.ROT>
7

>  <SCORE.INTER.VDW>
-26.1392

>  <SCORE.INTER.norm>
-0.969356

>  <SCORE.INTRA>
2.83939

>  <SCORE.INTRA.DIHEDRAL>
6.82574

>  <SCORE.INTRA.DIHEDRAL.0>
6.64354

>  <SCORE.INTRA.POLAR>
0

>  <SCORE.INTRA.POLAR.0>
0

>  <SCORE.INTRA.REPUL>
0

>  <SCORE.INTRA.REPUL.0>
0

>  <SCORE.INTRA.VDW>
-0.573482

>  <SCORE.INTRA.VDW.0>
-0.153295

>  <SCORE.INTRA.norm>
0.101407

>  <SCORE.RESTR>
0

>  <SCORE.RESTR.CAVITY>
0

>  <SCORE.RESTR.norm>
0

>  <SCORE.SYSTEM>
0

>  <SCORE.SYSTEM.CONST>
0

>  <SCORE.SYSTEM.DIHEDRAL>
0

>  <SCORE.SYSTEM.norm>
0

>  <SCORE.heavy>
28

>  <SCORE.norm>
-0.867949

$$$$
design_17
 OpenBabel05252019093D

 24 26  0  0  0  0  0  0  0  0999 V2000
   40.8057  -45.4771   11.4954 O   0  0  0  0  0  0  0  0  0  0  0  0
   40.1884  -45.3012   10.4465 C   0  0  0  0  0  0  0  0  0  0  0  0
   39.8818  -43.8599   10.1090 C   0  0  0  0  0  0  0  0  0  0  0  0
   40.6711  -43.2214    9.0789 C   0  0  0  0  0  0  0  0  0  0  0  0
   40.5913  -41.8289    8.7158 C   0  0  0  0  0  0  0  0  0  0  0  0
   40.2774  -40.8384    9.5696 N   0  0  0  0  0  0  0  0  0  0  0  0
   40.1108  -39.7325    8.9120 N   0  0  0  0  0  0  0  0  0  0  0  0
   40.3173  -39.9469    7.5820 C   0  0  0  0  0  0  0  0  0  0  0  0
   40.0135  -38.9573    6.5701 C   0  0  0  0  0  0  0  0  0  0  0  0
   39.9876  -37.5901    6.7144 C   0  0  0  0  0  0  0  0  0  0  0  0
   39.8176  -36.7466    5.5957 C   0  0  0  0  0  0  0  0  0  0  0  0
   39.6789  -37.2644    4.3392 C   0  0  0  0  0  0  0  0  0  0  0  0
   39.4423  -36.2168    2.9511 Cl  0  0  0  0  0  0  0  0  0  0  0  0
   39.7059  -38.6561    4.1586 C   0  0  0  0  0  0  0  0  0  0  0  0
   39.8618  -39.4495    5.2325 C   0  0  0  0  0  0  0  0  0  0  0  0
   40.6219  -41.2595    7.4844 N   0  0  0  0  0  0  0  0  0  0  0  0
   39.7328  -46.2198    9.5306 N   0  0  0  0  0  0  0  0  0  0  0  0
   39.2830  -47.1422    8.6244 C   0  0  0  0  0  0  0  0  0  0  0  0
   38.5936  -46.7206    7.3938 C   0  0  0  0  0  0  0  0  0  0  0  0
   37.2921  -46.2905    7.2651 C   0  0  0  0  0  0  0  0  0  0  0  0
   36.7723  -45.9031    6.0189 C   0  0  0  0  0  0  0  0  0  0  0  0
   37.5315  -45.9262    4.8601 C   0  0  0  0  0  0  0  0  0  0  0  0
   38.8568  -46.3637    4.9968 C   0  0  0  0  0  0  0  0  0  0  0  0
   39.3259  -46.7320    6.2039 C   0  0  0  0  0  0  0  0  0  0  0  0
  1  2  2  0  0  0  0
  2  3  1  0  0  0  0
  2 17  1  0  0  0  0
  3  4  1  0  0  0  0
  4  5  1  0  0  0  0
  5  6  2  0  0  0  0
  6  7  1  0  0  0  0
  7  8  1  0  0  0  0
  8  9  1  0  0  0  0
  8 16  2  0  0  0  0
  9 10  2  0  0  0  0
 10 11  1  0  0  0  0
 11 12  2  0  0  0  0
 12 13  1  0  0  0  0
 12 14  1  0  0  0  0
 14 15  2  0  0  0  0
 15  9  1  0  0  0  0
 16  5  1  0  0  0  0
 17 18  1  0  0  0  0
 18 19  1  0  0  0  0
 19 20  2  0  0  0  0
 20 21  1  0  0  0  0
 21 22  2  0  0  0  0
 22 23  1  0  0  0  0
 23 24  2  0  0  0  0
 24 19  1  0  0  0  0
M  END
>  <CHROM.1>
104.18730928,-174.31882517,30.83303252,26.95674435,-178.54159565,-77.08567631
39.56754818,-42.05433359,7.04563548,-1.71437880,-1.15422337,-0.53605879

>  <Name>
design_17

>  <RI>
0

>  <Rbt.Current_Directory>
/home/ziqiaoxu/icml18-jtnn/VAEdesign

>  <Rbt.Executable>
rbdock ($Id: //depot/dev/client3/rdock/2013.1/src/exe/rbdock.cxx#4 $)

>  <Rbt.Library>
libRbt.so (2013.1, Build901 2013/11/27)

>  <Rbt.Parameter_File>
/export/apps/rDock/src/rDock_2013.1_src//data/scripts/dock.prm

>  <Rbt.Receptor>
/home/ziqiaoxu/icml18-jtnn/VAEdesign/targets/RdRp-SARS-CoV-2/pocket_docking.prm

>  <SCORE>
-23.2289

>  <SCORE.INTER>
-21.4213

>  <SCORE.INTER.CONST>
1

>  <SCORE.INTER.POLAR>
-2.03063

>  <SCORE.INTER.REPUL>
0.0423694

>  <SCORE.INTER.ROT>
6

>  <SCORE.INTER.VDW>
-26.129

>  <SCORE.INTER.norm>
-0.892555

>  <SCORE.INTRA>
-1.92967

>  <SCORE.INTRA.DIHEDRAL>
-2.13035

>  <SCORE.INTRA.DIHEDRAL.0>
7.31523

>  <SCORE.INTRA.POLAR>
0

>  <SCORE.INTRA.POLAR.0>
0

>  <SCORE.INTRA.REPUL>
0

>  <SCORE.INTRA.REPUL.0>
0

>  <SCORE.INTRA.VDW>
-0.864498

>  <SCORE.INTRA.VDW.0>
-1.17128

>  <SCORE.INTRA.norm>
-0.080403

>  <SCORE.RESTR>
0.122057

>  <SCORE.RESTR.CAVITY>
0.122057

>  <SCORE.RESTR.norm>
0.0050857

>  <SCORE.SYSTEM>
0

>  <SCORE.SYSTEM.CONST>
0

>  <SCORE.SYSTEM.DIHEDRAL>
0

>  <SCORE.SYSTEM.norm>
0

>  <SCORE.heavy>
24

>  <SCORE.norm>
-0.967872

$$$$
design_2
 OpenBabel05252019093D

 24 26  0  0  0  0  0  0  0  0999 V2000
   36.0589  -44.9517    5.5227 C   0  0  0  0  0  0  0  0  0  0  0  0
   36.9991  -45.9443    6.1129 C   0  0  0  0  0  0  0  0  0  0  0  0
   37.2980  -47.2132    5.6767 C   0  0  0  0  0  0  0  0  0  0  0  0
   38.2230  -47.7285    6.5586 C   0  0  0  0  0  0  0  0  0  0  0  0
   38.8203  -49.0746    6.4618 C   0  0  0  0  0  0  0  0  0  0  0  0
   38.4783  -46.8128    7.4942 N   0  0  0  0  0  0  0  0  0  0  0  0
   39.3673  -46.8667    8.6320 C   0  0  0  0  0  0  0  0  0  0  0  0
   40.6954  -46.2799    8.3023 C   0  0  0  0  0  0  0  0  0  0  0  0
   41.2462  -45.3176    9.1392 C   0  0  0  0  0  0  0  0  0  0  0  0
   42.4599  -44.7539    8.8662 C   0  0  0  0  0  0  0  0  0  0  0  0
   43.1954  -45.1107    7.7508 C   0  0  0  0  0  0  0  0  0  0  0  0
   44.5046  -44.5171    7.4463 C   0  0  0  0  0  0  0  0  0  0  0  0
   45.1031  -45.2971    6.3495 N   0  0  0  0  0  0  0  0  0  0  0  0
   44.8112  -45.0038    5.0368 C   0  0  0  0  0  0  0  0  0  0  0  0
   44.0021  -44.0292    4.8296 O   0  0  0  0  0  0  0  0  0  0  0  0
   45.3199  -45.6783    3.8610 C   0  0  0  0  0  0  0  0  0  0  0  0
   46.7946  -46.6252    3.7818 S   0  0  0  0  0  0  0  0  0  0  0  0
   46.7219  -47.0681    2.1699 N   0  0  0  0  0  0  0  0  0  0  0  0
   45.6379  -46.5143    1.7588 N   0  0  0  0  0  0  0  0  0  0  0  0
   44.8981  -45.8054    2.5708 C   0  0  0  0  0  0  0  0  0  0  0  0
   43.6185  -45.1604    2.0627 C   0  0  0  0  0  0  0  0  0  0  0  0
   42.6497  -46.0598    6.9278 C   0  0  0  0  0  0  0  0  0  0  0  0
   41.4271  -46.6356    7.1917 C   0  0  0  0  0  0  0  0  0  0  0  0
   37.7292  -45.7443    7.2061 N   0  0  0  0  0  0  0  0  0  0  0  0
  1  2  1  0  0  0  0
  2  3  1  0  0  0  0
  3  4  2  0  0  0  0
  4  5  1  0  0  0  0
  4  6  1  0  0  0  0
  6  7  1  0  0  0  0
  6 24  1  0  0  0  0
  7  8  1  0  0  0  0
  8  9  2  0  0  0  0
  9 10  1  0  0  0  0
 10 11  2  0  0  0  0
 11 12  1  0  0  0  0
 11 22  1  0  0  0  0
 12 13  1  0  0  0  0
 13 14  1  0  0  0  0
 14 15  2  0  0  0  0
 14 16  1  0  0  0  0
 16 17  1  0  0  0  0
 17 18  1  0  0  0  0
 18 19  2  0  0  0  0
 19 20  1  0  0  0  0
 20 21  1  0  0  0  0
 20 16  2  0  0  0  0
 22 23  2  0  0  0  0
 23  8  1  0  0  0  0
 24  2  2  0  0  0  0
M  END
>  <CHROM.1>
94.35057864,129.38929785,169.60441553,85.81417600,-22.28238909,42.18741758
-46.03579212,5.76023708,2.73784658,0.16695937,1.35162268

>  <Name>
design_2

>  <RI>
0

>  <Rbt.Current_Directory>
/home/ziqiaoxu/icml18-jtnn/VAEdesign

>  <Rbt.Executable>
rbdock ($Id: //depot/dev/client3/rdock/2013.1/src/exe/rbdock.cxx#4 $)

>  <Rbt.Library>
libRbt.so (2013.1, Build901 2013/11/27)

>  <Rbt.Parameter_File>
/export/apps/rDock/src/rDock_2013.1_src//data/scripts/dock.prm

>  <Rbt.Receptor>
/home/ziqiaoxu/icml18-jtnn/VAEdesign/targets/RdRp-SARS-CoV-2/pocket_docking.prm

>  <SCORE>
-17.84

>  <SCORE.INTER>
-18.7695

>  <SCORE.INTER.CONST>
1

>  <SCORE.INTER.POLAR>
-0.894427

>  <SCORE.INTER.REPUL>
0

>  <SCORE.INTER.ROT>
5

>  <SCORE.INTER.VDW>
-26.1284

>  <SCORE.INTER.norm>
-0.782062

>  <SCORE.INTRA>
0.929523

>  <SCORE.INTRA.DIHEDRAL>
1.62959

>  <SCORE.INTRA.DIHEDRAL.0>
5.04057

>  <SCORE.INTRA.POLAR>
0

>  <SCORE.INTRA.POLAR.0>
0

>  <SCORE.INTRA.REPUL>
0

>  <SCORE.INTRA.REPUL.0>
0

>  <SCORE.INTRA.VDW>
0.114727

>  <SCORE.INTRA.VDW.0>
-1.826

>  <SCORE.INTRA.norm>
0.0387301

>  <SCORE.RESTR>
0

>  <SCORE.RESTR.CAVITY>
0

>  <SCORE.RESTR.norm>
0

>  <SCORE.SYSTEM>
0

>  <SCORE.SYSTEM.CONST>
0

>  <SCORE.SYSTEM.DIHEDRAL>
0

>  <SCORE.SYSTEM.norm>
0

>  <SCORE.heavy>
24

>  <SCORE.norm>
-0.743332

$$$$
design_13
 OpenBabel05252019093D

 26 28  0  0  0  0  0  0  0  0999 V2000
   38.7460  -45.6443    2.1388 N   0  0  0  0  0  0  0  0  0  0  0  0
   38.7741  -45.8417    3.2785 C   0  0  0  0  0  0  0  0  0  0  0  0
   38.8184  -46.1022    4.6936 C   0  0  0  0  0  0  0  0  0  0  0  0
   37.9324  -45.5147    5.5702 C   0  0  0  0  0  0  0  0  0  0  0  0
   37.9630  -45.7525    6.9178 C   0  0  0  0  0  0  0  0  0  0  0  0
   38.9038  -46.6129    7.4871 C   0  0  0  0  0  0  0  0  0  0  0  0
   38.8956  -46.9009    8.9249 C   0  0  0  0  0  0  0  0  0  0  0  0
   40.0028  -46.3846    9.7458 C   0  0  0  0  0  0  0  0  0  0  0  0
   40.4343  -45.0020    9.5230 C   0  0  0  0  0  0  0  0  0  0  0  0
   41.4913  -44.7611    8.8974 O   0  0  0  0  0  0  0  0  0  0  0  0
   39.6519  -43.8971   10.0185 N   0  0  0  0  0  0  0  0  0  0  0  0
   40.1041  -42.5652    9.7818 C   0  0  0  0  0  0  0  0  0  0  0  0
   39.0171  -41.5375    9.8917 C   0  0  0  0  0  0  0  0  0  0  0  0
   39.1635  -40.6189    8.7164 C   0  0  0  0  0  0  0  0  0  0  0  0
   40.0536  -39.5582    8.7671 C   0  0  0  0  0  0  0  0  0  0  0  0
   40.1734  -38.7244    7.6744 C   0  0  0  0  0  0  0  0  0  0  0  0
   39.4381  -38.8999    6.5182 C   0  0  0  0  0  0  0  0  0  0  0  0
   39.6167  -37.9952    5.4276 N   0  0  0  0  0  0  0  0  0  0  0  0
   40.2151  -36.8140    5.3890 C   0  0  0  0  0  0  0  0  0  0  0  0
   40.1411  -36.3117    4.1267 N   0  0  0  0  0  0  0  0  0  0  0  0
   39.4819  -37.2160    3.3931 C   0  0  0  0  0  0  0  0  0  0  0  0
   39.1740  -38.2243    4.1959 N   0  0  0  0  0  0  0  0  0  0  0  0
   38.5603  -39.9502    6.4747 C   0  0  0  0  0  0  0  0  0  0  0  0
   38.4286  -40.7971    7.5648 C   0  0  0  0  0  0  0  0  0  0  0  0
   39.7952  -47.2095    6.6315 C   0  0  0  0  0  0  0  0  0  0  0  0
   39.7448  -46.9505    5.2562 C   0  0  0  0  0  0  0  0  0  0  0  0
  1  2  3  0  0  0  0
  2  3  1  0  0  0  0
  3  4  2  0  0  0  0
  4  5  1  0  0  0  0
  5  6  2  0  0  0  0
  6  7  1  0  0  0  0
  6 25  1  0  0  0  0
  7  8  1  0  0  0  0
  8  9  1  0  0  0  0
  9 10  2  0  0  0  0
  9 11  1  0  0  0  0
 11 12  1  0  0  0  0
 12 13  1  0  0  0  0
 13 14  1  0  0  0  0
 14 15  2  0  0  0  0
 15 16  1  0  0  0  0
 16 17  2  0  0  0  0
 17 18  1  0  0  0  0
 17 23  1  0  0  0  0
 18 19  1  0  0  0  0
 19 20  2  0  0  0  0
 20 21  1  0  0  0  0
 21 22  2  0  0  0  0
 22 18  1  0  0  0  0
 23 24  2  0  0  0  0
 24 14  1  0  0  0  0
 25 26  2  0  0  0  0
 26  3  1  0  0  0  0
M  END
>  <CHROM.1>
-111.24219214,44.24681722,-104.21540057,159.34428153,-134.70868062,-84.08721086
-14.15967895,39.43305793,-42.52197830,6.84777566,1.79546275,1.41375961,2.72040766

>  <Name>
design_13

>  <RI>
0

>  <Rbt.Current_Directory>
/home/ziqiaoxu/icml18-jtnn/VAEdesign

>  <Rbt.Executable>
rbdock ($Id: //depot/dev/client3/rdock/2013.1/src/exe/rbdock.cxx#4 $)

>  <Rbt.Library>
libRbt.so (2013.1, Build901 2013/11/27)

>  <Rbt.Parameter_File>
/export/apps/rDock/src/rDock_2013.1_src//data/scripts/dock.prm

>  <Rbt.Receptor>
/home/ziqiaoxu/icml18-jtnn/VAEdesign/targets/RdRp-SARS-CoV-2/pocket_docking.prm

>  <SCORE>
-19.1683

>  <SCORE.INTER>
-17.3096

>  <SCORE.INTER.CONST>
1

>  <SCORE.INTER.POLAR>
-1.0542

>  <SCORE.INTER.REPUL>
0

>  <SCORE.INTER.ROT>
7

>  <SCORE.INTER.VDW>
-26.1254

>  <SCORE.INTER.norm>
-0.665756

>  <SCORE.INTRA>
-1.85878

>  <SCORE.INTRA.DIHEDRAL>
-2.62328

>  <SCORE.INTRA.DIHEDRAL.0>
12.9956

>  <SCORE.INTRA.POLAR>
0

>  <SCORE.INTRA.POLAR.0>
0

>  <SCORE.INTRA.REPUL>
0

>  <SCORE.INTRA.REPUL.0>
0

>  <SCORE.INTRA.VDW>
-0.547143

>  <SCORE.INTRA.VDW.0>
-1.29018

>  <SCORE.INTRA.norm>
-0.0714916

>  <SCORE.RESTR>
0.000101834

>  <SCORE.RESTR.CAVITY>
0.000101834

>  <SCORE.RESTR.norm>
3.91668e-06

>  <SCORE.SYSTEM>
0

>  <SCORE.SYSTEM.CONST>
0

>  <SCORE.SYSTEM.DIHEDRAL>
0

>  <SCORE.SYSTEM.norm>
0

>  <SCORE.heavy>
26

>  <SCORE.norm>
-0.737243

$$$$
design_5
 OpenBabel05252019093D

 25 27  0  0  0  0  0  0  0  0999 V2000
   43.9590  -45.3290    6.3654 C   0  0  0  0  0  0  0  0  0  0  0  0
   42.6624  -45.8876    6.8333 C   0  0  0  0  0  0  0  0  0  0  0  0
   42.0725  -45.7319    8.0967 C   0  0  0  0  0  0  0  0  0  0  0  0
   40.8765  -46.3975    8.1411 C   0  0  0  0  0  0  0  0  0  0  0  0
   39.9130  -46.5025    9.2448 C   0  0  0  0  0  0  0  0  0  0  0  0
   40.2946  -45.8533   10.5150 C   0  0  0  0  0  0  0  0  0  0  0  0
   40.6369  -44.4476   10.5166 C   0  0  0  0  0  0  0  0  0  0  0  0
   41.8039  -44.0369   10.4173 O   0  0  0  0  0  0  0  0  0  0  0  0
   39.5708  -43.4874   10.6394 N   0  0  0  0  0  0  0  0  0  0  0  0
   39.8327  -42.0986   10.6364 C   0  0  0  0  0  0  0  0  0  0  0  0
   40.0742  -41.5654    9.2651 C   0  0  0  0  0  0  0  0  0  0  0  0
   40.4640  -42.4787    8.4541 O   0  0  0  0  0  0  0  0  0  0  0  0
   39.9179  -40.2438    8.8530 N   0  0  0  0  0  0  0  0  0  0  0  0
   40.1493  -39.7561    7.5470 C   0  0  0  0  0  0  0  0  0  0  0  0
   40.5823  -40.4906    6.4861 C   0  0  0  0  0  0  0  0  0  0  0  0
   40.7770  -39.9724    5.1973 C   0  0  0  0  0  0  0  0  0  0  0  0
   40.5127  -38.6428    5.0053 C   0  0  0  0  0  0  0  0  0  0  0  0
   40.0711  -37.8675    6.0654 C   0  0  0  0  0  0  0  0  0  0  0  0
   39.8918  -38.3911    7.2951 C   0  0  0  0  0  0  0  0  0  0  0  0
   39.8564  -36.4574    5.5965 C   0  0  0  0  0  0  0  0  0  0  0  0
   40.5667  -36.3983    4.2637 C   0  0  0  0  0  0  0  0  0  0  0  0
   40.6249  -37.8292    3.7710 C   0  0  0  0  0  0  0  0  0  0  0  0
   40.7534  -46.9532    6.8979 N   0  0  0  0  0  0  0  0  0  0  0  0
   39.5991  -47.7586    6.5259 C   0  0  0  0  0  0  0  0  0  0  0  0
   41.7889  -46.6522    6.1534 N   0  0  0  0  0  0  0  0  0  0  0  0
  1  2  1  0  0  0  0
  2  3  1  0  0  0  0
  3  4  2  0  0  0  0
  4  5  1  0  0  0  0
  4 23  1  0  0  0  0
  5  6  1  0  0  0  0
  6  7  1  0  0  0  0
  7  8  2  0  0  0  0
  7  9  1  0  0  0  0
  9 10  1  0  0  0  0
 10 11  1  0  0  0  0
 11 12  2  0  0  0  0
 11 13  1  0  0  0  0
 13 14  1  0  0  0  0
 14 15  2  0  0  0  0
 15 16  1  0  0  0  0
 16 17  2  0  0  0  0
 17 18  1  0  0  0  0
 18 19  2  0  0  0  0
 18 20  1  0  0  0  0
 19 14  1  0  0  0  0
 20 21  1  0  0  0  0
 21 22  1  0  0  0  0
 22 17  1  0  0  0  0
 23 24  1  0  0  0  0
 23 25  1  0  0  0  0
 25  2  2  0  0  0  0
M  END
>  <CHROM.1>
-2.91084452,55.55041952,-94.19413645,78.42741392,-23.18852069,-1.13201401
40.68970601,-42.50839317,7.58814047,-1.30201062,1.23987812,-0.57954453

>  <Name>
design_5

>  <RI>
0

>  <Rbt.Current_Directory>
/home/ziqiaoxu/icml18-jtnn/VAEdesign

>  <Rbt.Executable>
rbdock ($Id: //depot/dev/client3/rdock/2013.1/src/exe/rbdock.cxx#4 $)

>  <Rbt.Library>
libRbt.so (2013.1, Build901 2013/11/27)

>  <Rbt.Parameter_File>
/export/apps/rDock/src/rDock_2013.1_src//data/scripts/dock.prm

>  <Rbt.Receptor>
/home/ziqiaoxu/icml18-jtnn/VAEdesign/targets/RdRp-SARS-CoV-2/pocket_docking.prm

>  <SCORE>
-18.9589

>  <SCORE.INTER>
-19.5767

>  <SCORE.INTER.CONST>
1

>  <SCORE.INTER.POLAR>
-1.51497

>  <SCORE.INTER.REPUL>
0.05976

>  <SCORE.INTER.ROT>
6

>  <SCORE.INTER.VDW>
-26.1246

>  <SCORE.INTER.norm>
-0.783068

>  <SCORE.INTRA>
0.617812

>  <SCORE.INTRA.DIHEDRAL>
-2.01638

>  <SCORE.INTRA.DIHEDRAL.0>
6.40698

>  <SCORE.INTRA.POLAR>
0

>  <SCORE.INTRA.POLAR.0>
0

>  <SCORE.INTRA.REPUL>
0

>  <SCORE.INTRA.REPUL.0>
0

>  <SCORE.INTRA.VDW>
1.626

>  <SCORE.INTRA.VDW.0>
-2.64478

>  <SCORE.INTRA.norm>
0.0247125

>  <SCORE.RESTR>
0

>  <SCORE.RESTR.CAVITY>
0

>  <SCORE.RESTR.norm>
0

>  <SCORE.SYSTEM>
0

>  <SCORE.SYSTEM.CONST>
0

>  <SCORE.SYSTEM.DIHEDRAL>
0

>  <SCORE.SYSTEM.norm>
0

>  <SCORE.heavy>
25

>  <SCORE.norm>
-0.758356

$$$$
design_12
 OpenBabel05252019093D

 24 25  0  0  0  0  0  0  0  0999 V2000
   35.5124  -39.8260    5.1796 N   0  0  0  0  0  0  0  0  0  0  0  0
   36.4306  -40.4807    6.0323 C   0  0  0  0  0  0  0  0  0  0  0  0
   37.0947  -39.7910    6.8893 O   0  0  0  0  0  0  0  0  0  0  0  0
   36.6532  -41.9073    5.9856 C   0  0  0  0  0  0  0  0  0  0  0  0
   37.7995  -42.4223    6.5503 C   0  0  0  0  0  0  0  0  0  0  0  0
   38.0773  -43.7404    6.5725 C   0  0  0  0  0  0  0  0  0  0  0  0
   37.1362  -44.6446    5.9801 C   0  0  0  0  0  0  0  0  0  0  0  0
   37.5422  -46.0095    6.0915 N   0  0  0  0  0  0  0  0  0  0  0  0
   37.8912  -47.2103    6.1828 C   0  0  0  0  0  0  0  0  0  0  0  0
   37.4435  -48.2993    5.6260 O   0  0  0  0  0  0  0  0  0  0  0  0
   39.0656  -47.5992    7.1285 C   0  0  0  0  0  0  0  0  0  0  0  0
   38.6379  -47.1243    8.5103 C   0  0  0  0  0  0  0  0  0  0  0  0
   39.8069  -47.0437    9.3039 N   0  0  0  0  0  0  0  0  0  0  0  0
   40.3980  -45.5036    9.6884 S   0  0  0  0  0  0  0  0  0  0  0  0
   39.4663  -44.3955    9.3411 O   0  0  0  0  0  0  0  0  0  0  0  0
   40.6905  -45.4314   11.1816 O   0  0  0  0  0  0  0  0  0  0  0  0
   41.9019  -45.2963    8.8379 C   0  0  0  0  0  0  0  0  0  0  0  0
   42.1888  -45.9473    7.7005 C   0  0  0  0  0  0  0  0  0  0  0  0
   43.4191  -45.6959    7.0897 C   0  0  0  0  0  0  0  0  0  0  0  0
   44.3400  -44.8105    7.6121 C   0  0  0  0  0  0  0  0  0  0  0  0
   43.9871  -44.1696    8.7868 C   0  0  0  0  0  0  0  0  0  0  0  0
   42.7895  -44.3997    9.4009 C   0  0  0  0  0  0  0  0  0  0  0  0
   36.0249  -44.1358    5.4288 C   0  0  0  0  0  0  0  0  0  0  0  0
   35.7498  -42.7620    5.4145 C   0  0  0  0  0  0  0  0  0  0  0  0
  1  2  1  0  0  0  0
  2  3  2  0  0  0  0
  2  4  1  0  0  0  0
  4  5  2  0  0  0  0
  5  6  1  0  0  0  0
  6  7  2  0  0  0  0
  7  8  1  0  0  0  0
  7 23  1  0  0  0  0
  8  9  1  0  0  0  0
  9 10  2  0  0  0  0
  9 11  1  0  0  0  0
 11 12  1  0  0  0  0
 12 13  1  0  0  0  0
 13 14  1  0  0  0  0
 14 15  2  0  0  0  0
 14 16  2  0  0  0  0
 14 17  1  0  0  0  0
 17 18  2  0  0  0  0
 18 19  1  0  0  0  0
 19 20  2  0  0  0  0
 20 21  1  0  0  0  0
 21 22  2  0  0  0  0
 22 17  1  0  0  0  0
 23 24  2  0  0  0  0
 24  4  1  0  0  0  0
M  END
>  <CHROM.1>
161.68640373,-169.13780412,58.41153725,-161.03452484,107.49230388,10.44002316
26.03642796,39.19205072,-44.58826205,7.51033366,-2.59073990,0.49530824,3.12435666

>  <Name>
design_12

>  <RI>
0

>  <Rbt.Current_Directory>
/home/ziqiaoxu/icml18-jtnn/VAEdesign

>  <Rbt.Executable>
rbdock ($Id: //depot/dev/client3/rdock/2013.1/src/exe/rbdock.cxx#4 $)

>  <Rbt.Library>
libRbt.so (2013.1, Build901 2013/11/27)

>  <Rbt.Parameter_File>
/export/apps/rDock/src/rDock_2013.1_src//data/scripts/dock.prm

>  <Rbt.Receptor>
/home/ziqiaoxu/icml18-jtnn/VAEdesign/targets/RdRp-SARS-CoV-2/pocket_docking.prm

>  <SCORE>
-25.7068

>  <SCORE.INTER>
-19.9758

>  <SCORE.INTER.CONST>
1

>  <SCORE.INTER.POLAR>
-1.88406

>  <SCORE.INTER.REPUL>
0.0276625

>  <SCORE.INTER.ROT>
7

>  <SCORE.INTER.VDW>
-26.1083

>  <SCORE.INTER.norm>
-0.832324

>  <SCORE.INTRA>
-5.73107

>  <SCORE.INTRA.DIHEDRAL>
3.71235

>  <SCORE.INTRA.DIHEDRAL.0>
5.37177

>  <SCORE.INTRA.POLAR>
0

>  <SCORE.INTRA.POLAR.0>
0

>  <SCORE.INTRA.REPUL>
0

>  <SCORE.INTRA.REPUL.0>
0

>  <SCORE.INTRA.VDW>
-7.58724

>  <SCORE.INTRA.VDW.0>
5.79728

>  <SCORE.INTRA.norm>
-0.238795

>  <SCORE.RESTR>
0

>  <SCORE.RESTR.CAVITY>
0

>  <SCORE.RESTR.norm>
0

>  <SCORE.SYSTEM>
0

>  <SCORE.SYSTEM.CONST>
0

>  <SCORE.SYSTEM.DIHEDRAL>
0

>  <SCORE.SYSTEM.norm>
0

>  <SCORE.heavy>
24

>  <SCORE.norm>
-1.07112

$$$$
design_4
 OpenBabel05252019093D

 24 27  0  0  0  0  0  0  0  0999 V2000
   38.8665  -49.1803    6.4993 C   0  0  0  0  0  0  0  0  0  0  0  0
   39.4973  -48.1053    7.4004 C   0  0  0  0  0  0  0  0  0  0  0  0
   39.1047  -47.8415    8.5902 N   0  0  0  0  0  0  0  0  0  0  0  0
   39.9259  -46.9395    9.0192 N   0  0  0  0  0  0  0  0  0  0  0  0
   40.8529  -46.6532    8.1462 C   0  0  0  0  0  0  0  0  0  0  0  0
   41.9807  -45.7022    8.2304 C   0  0  0  0  0  0  0  0  0  0  0  0
   42.2988  -44.9257    9.2693 C   0  0  0  0  0  0  0  0  0  0  0  0
   43.3665  -44.0483    9.2129 C   0  0  0  0  0  0  0  0  0  0  0  0
   44.1219  -43.9655    8.0497 C   0  0  0  0  0  0  0  0  0  0  0  0
   43.7668  -44.7757    6.9732 C   0  0  0  0  0  0  0  0  0  0  0  0
   44.4505  -44.5285    5.7462 C   0  0  0  0  0  0  0  0  0  0  0  0
   45.4619  -45.3575    5.1905 N   0  0  0  0  0  0  0  0  0  0  0  0
   45.7213  -44.8151    3.8724 C   0  0  0  0  0  0  0  0  0  0  0  0
   45.5351  -43.6504    3.5523 O   0  0  0  0  0  0  0  0  0  0  0  0
   46.1549  -45.8247    2.9221 C   0  0  0  0  0  0  0  0  0  0  0  0
   47.5505  -46.7728    3.7917 S   0  0  0  0  0  0  0  0  0  0  0  0
   47.9297  -47.7934    2.4492 C   0  0  0  0  0  0  0  0  0  0  0  0
   47.0360  -47.3804    1.5156 C   0  0  0  0  0  0  0  0  0  0  0  0
   46.1408  -46.3921    1.8423 C   0  0  0  0  0  0  0  0  0  0  0  0
   44.7653  -46.3340    1.0744 C   0  0  0  0  0  0  0  0  0  0  0  0
   44.8701  -45.0730    0.2668 C   0  0  0  0  0  0  0  0  0  0  0  0
   44.8333  -46.3900   -0.3630 C   0  0  0  0  0  0  0  0  0  0  0  0
   42.7460  -45.6211    7.0438 C   0  0  0  0  0  0  0  0  0  0  0  0
   40.6107  -47.4509    7.0162 N   0  0  0  0  0  0  0  0  0  0  0  0
  1  2  1  0  0  0  0
  2  3  2  0  0  0  0
  3  4  1  0  0  0  0
  4  5  1  0  0  0  0
  5  6  1  0  0  0  0
  5 24  2  0  0  0  0
  6  7  2  0  0  0  0
  7  8  1  0  0  0  0
  8  9  2  0  0  0  0
  9 10  1  0  0  0  0
 10 11  1  0  0  0  0
 10 23  2  0  0  0  0
 11 12  1  0  0  0  0
 12 13  1  0  0  0  0
 13 14  2  0  0  0  0
 13 15  1  0  0  0  0
 15 16  1  0  0  0  0
 16 17  1  0  0  0  0
 17 18  2  0  0  0  0
 18 19  1  0  0  0  0
 19 20  1  0  0  0  0
 19 15  2  0  0  0  0
 20 21  1  0  0  0  0
 21 22  1  0  0  0  0
 22 20  1  0  0  0  0
 23  6  1  0  0  0  0
 24  2  1  0  0  0  0
M  END
>  <CHROM.1>
0.98401321,106.26667342,172.29641056,-49.58070754,89.10563751,43.83841320
-46.10544827,5.21391552,2.46317627,0.51844566,1.10688861

>  <Name>
design_4

>  <RI>
0

>  <Rbt.Current_Directory>
/home/ziqiaoxu/icml18-jtnn/VAEdesign

>  <Rbt.Executable>
rbdock ($Id: //depot/dev/client3/rdock/2013.1/src/exe/rbdock.cxx#4 $)

>  <Rbt.Library>
libRbt.so (2013.1, Build901 2013/11/27)

>  <Rbt.Parameter_File>
/export/apps/rDock/src/rDock_2013.1_src//data/scripts/dock.prm

>  <Rbt.Receptor>
/home/ziqiaoxu/icml18-jtnn/VAEdesign/targets/RdRp-SARS-CoV-2/pocket_docking.prm

>  <SCORE>
-22.2676

>  <SCORE.INTER>
-18.749

>  <SCORE.INTER.CONST>
1

>  <SCORE.INTER.POLAR>
-0.894427

>  <SCORE.INTER.REPUL>
0

>  <SCORE.INTER.ROT>
5

>  <SCORE.INTER.VDW>
-26.108

>  <SCORE.INTER.norm>
-0.781209

>  <SCORE.INTRA>
-3.51859

>  <SCORE.INTRA.DIHEDRAL>
-8.01376

>  <SCORE.INTRA.DIHEDRAL.0>
16.9399

>  <SCORE.INTRA.POLAR>
0

>  <SCORE.INTRA.POLAR.0>
0

>  <SCORE.INTRA.REPUL>
0

>  <SCORE.INTRA.REPUL.0>
0

>  <SCORE.INTRA.VDW>
0.488293

>  <SCORE.INTRA.VDW.0>
-2.16972

>  <SCORE.INTRA.norm>
-0.146608

>  <SCORE.RESTR>
0

>  <SCORE.RESTR.CAVITY>
0

>  <SCORE.RESTR.norm>
0

>  <SCORE.SYSTEM>
0

>  <SCORE.SYSTEM.CONST>
0

>  <SCORE.SYSTEM.DIHEDRAL>
0

>  <SCORE.SYSTEM.norm>
0

>  <SCORE.heavy>
24

>  <SCORE.norm>
-0.927817

$$$$
design_6
 OpenBabel05252019093D

 23 24  0  0  0  0  0  0  0  0999 V2000
   39.1607  -48.4779    6.6615 C   0  0  0  0  0  0  0  0  0  0  0  0
   39.7820  -47.5168    7.5970 C   0  0  0  0  0  0  0  0  0  0  0  0
   40.9798  -46.9106    7.2835 C   0  0  0  0  0  0  0  0  0  0  0  0
   41.5819  -46.0110    8.1360 C   0  0  0  0  0  0  0  0  0  0  0  0
   40.9747  -45.7046    9.3369 C   0  0  0  0  0  0  0  0  0  0  0  0
   41.6556  -44.7284   10.2431 C   0  0  0  0  0  0  0  0  0  0  0  0
   40.7883  -43.6309   10.5382 N   0  0  0  0  0  0  0  0  0  0  0  0
   40.4156  -42.7224    9.5051 C   0  0  0  0  0  0  0  0  0  0  0  0
   40.8295  -42.8590    8.3319 O   0  0  0  0  0  0  0  0  0  0  0  0
   39.5179  -41.5894    9.8240 C   0  0  0  0  0  0  0  0  0  0  0  0
   40.1454  -40.3049    9.4222 C   0  0  0  0  0  0  0  0  0  0  0  0
   40.0238  -39.9755    7.9860 C   0  0  0  0  0  0  0  0  0  0  0  0
   39.9248  -40.9078    7.1758 O   0  0  0  0  0  0  0  0  0  0  0  0
   40.0219  -38.6367    7.5615 N   0  0  0  0  0  0  0  0  0  0  0  0
   39.9201  -38.1310    6.2568 C   0  0  0  0  0  0  0  0  0  0  0  0
   40.0589  -36.7457    6.0934 C   0  0  0  0  0  0  0  0  0  0  0  0
   39.9869  -36.1285    4.8729 C   0  0  0  0  0  0  0  0  0  0  0  0
   39.7688  -36.8792    3.7356 C   0  0  0  0  0  0  0  0  0  0  0  0
   39.6705  -36.1179    2.1522 Cl  0  0  0  0  0  0  0  0  0  0  0  0
   39.6275  -38.2411    3.8532 C   0  0  0  0  0  0  0  0  0  0  0  0
   39.7065  -38.8356    5.1112 C   0  0  0  0  0  0  0  0  0  0  0  0
   39.7791  -46.3079    9.6529 C   0  0  0  0  0  0  0  0  0  0  0  0
   39.1855  -47.2026    8.7992 C   0  0  0  0  0  0  0  0  0  0  0  0
  1  2  1  0  0  0  0
  2  3  2  0  0  0  0
  3  4  1  0  0  0  0
  4  5  2  0  0  0  0
  5  6  1  0  0  0  0
  5 22  1  0  0  0  0
  6  7  1  0  0  0  0
  7  8  1  0  0  0  0
  8  9  2  0  0  0  0
  8 10  1  0  0  0  0
 10 11  1  0  0  0  0
 11 12  1  0  0  0  0
 12 13  2  0  0  0  0
 12 14  1  0  0  0  0
 14 15  1  0  0  0  0
 15 16  2  0  0  0  0
 16 17  1  0  0  0  0
 17 18  2  0  0  0  0
 18 19  1  0  0  0  0
 18 20  1  0  0  0  0
 20 21  2  0  0  0  0
 21 15  1  0  0  0  0
 22 23  2  0  0  0  0
 23  2  1  0  0  0  0
M  END
>  <CHROM.1>
123.16858707,-67.06203249,124.81860652,80.85883555,-27.70119764,-174.66631597
40.12261727,-41.57406738,7.09072147,1.19291932,1.43109996,3.04999424

>  <Name>
design_6

>  <RI>
0

>  <Rbt.Current_Directory>
/home/ziqiaoxu/icml18-jtnn/VAEdesign

>  <Rbt.Executable>
rbdock ($Id: //depot/dev/client3/rdock/2013.1/src/exe/rbdock.cxx#4 $)

>  <Rbt.Library>
libRbt.so (2013.1, Build901 2013/11/27)

>  <Rbt.Parameter_File>
/export/apps/rDock/src/rDock_2013.1_src//data/scripts/dock.prm

>  <Rbt.Receptor>
/home/ziqiaoxu/icml18-jtnn/VAEdesign/targets/RdRp-SARS-CoV-2/pocket_docking.prm

>  <SCORE>
-18.8603

>  <SCORE.INTER>
-19.6334

>  <SCORE.INTER.CONST>
1

>  <SCORE.INTER.POLAR>
-1.449

>  <SCORE.INTER.REPUL>
0

>  <SCORE.INTER.ROT>
6

>  <SCORE.INTER.VDW>
-26.1068

>  <SCORE.INTER.norm>
-0.853627

>  <SCORE.INTRA>
0.77145

>  <SCORE.INTRA.DIHEDRAL>
3.51443

>  <SCORE.INTRA.DIHEDRAL.0>
4.4513

>  <SCORE.INTRA.POLAR>
0

>  <SCORE.INTRA.POLAR.0>
0

>  <SCORE.INTRA.REPUL>
0

>  <SCORE.INTRA.REPUL.0>
0

>  <SCORE.INTRA.VDW>
-0.985768

>  <SCORE.INTRA.VDW.0>
0.68554

>  <SCORE.INTRA.norm>
0.0335413

>  <SCORE.RESTR>
0.00166795

>  <SCORE.RESTR.CAVITY>
0.00166795

>  <SCORE.RESTR.norm>
7.25198e-05

>  <SCORE.SYSTEM>
0

>  <SCORE.SYSTEM.CONST>
0

>  <SCORE.SYSTEM.DIHEDRAL>
0

>  <SCORE.SYSTEM.norm>
0

>  <SCORE.heavy>
23

>  <SCORE.norm>
-0.820013

$$$$
design_4
 OpenBabel05252019093D

 23 25  0  0  0  0  0  0  0  0999 V2000
   39.1827  -49.1929    6.8021 C   0  0  0  0  0  0  0  0  0  0  0  0
   39.5055  -47.9032    7.4575 C   0  0  0  0  0  0  0  0  0  0  0  0
   40.6820  -47.2616    7.1194 C   0  0  0  0  0  0  0  0  0  0  0  0
   40.9913  -46.0610    7.7237 C   0  0  0  0  0  0  0  0  0  0  0  0
   40.1301  -45.5047    8.6604 C   0  0  0  0  0  0  0  0  0  0  0  0
   40.5681  -44.0046    9.3817 S   0  0  0  0  0  0  0  0  0  0  0  0
   41.6357  -44.2595   10.4186 O   0  0  0  0  0  0  0  0  0  0  0  0
   41.2275  -43.1322    8.3247 O   0  0  0  0  0  0  0  0  0  0  0  0
   39.3029  -43.1602   10.1023 N   0  0  0  0  0  0  0  0  0  0  0  0
   39.6105  -41.8273   10.5129 C   0  0  0  0  0  0  0  0  0  0  0  0
   39.6273  -40.8783    9.3701 C   0  0  0  0  0  0  0  0  0  0  0  0
   38.8413  -41.0525    8.2485 C   0  0  0  0  0  0  0  0  0  0  0  0
   38.8431  -40.1938    7.1915 C   0  0  0  0  0  0  0  0  0  0  0  0
   39.6562  -39.0966    7.2203 C   0  0  0  0  0  0  0  0  0  0  0  0
   39.6582  -38.1919    6.1070 N   0  0  0  0  0  0  0  0  0  0  0  0
   40.1194  -36.9376    6.0851 C   0  0  0  0  0  0  0  0  0  0  0  0
   39.9425  -36.3982    4.8304 C   0  0  0  0  0  0  0  0  0  0  0  0
   39.3646  -37.3534    4.0938 N   0  0  0  0  0  0  0  0  0  0  0  0
   39.1942  -38.4362    4.8686 C   0  0  0  0  0  0  0  0  0  0  0  0
   40.4557  -38.8888    8.3237 C   0  0  0  0  0  0  0  0  0  0  0  0
   40.4499  -39.7620    9.3915 C   0  0  0  0  0  0  0  0  0  0  0  0
   38.9500  -46.1354    9.0082 C   0  0  0  0  0  0  0  0  0  0  0  0
   38.6576  -47.3328    8.3948 C   0  0  0  0  0  0  0  0  0  0  0  0
  1  2  1  0  0  0  0
  2  3  2  0  0  0  0
  3  4  1  0  0  0  0
  4  5  2  0  0  0  0
  5  6  1  0  0  0  0
  5 22  1  0  0  0  0
  6  7  2  0  0  0  0
  6  8  2  0  0  0  0
  6  9  1  0  0  0  0
  9 10  1  0  0  0  0
 10 11  1  0  0  0  0
 11 12  2  0  0  0  0
 12 13  1  0  0  0  0
 13 14  2  0  0  0  0
 14 15  1  0  0  0  0
 14 20  1  0  0  0  0
 15 16  1  0  0  0  0
 16 17  2  0  0  0  0
 17 18  1  0  0  0  0
 18 19  2  0  0  0  0
 19 15  1  0  0  0  0
 20 21  2  0  0  0  0
 21 11  1  0  0  0  0
 22 23  2  0  0  0  0
 23  2  1  0  0  0  0
M  END
>  <CHROM.1>
-76.48899515,-170.45603945,77.61419246,29.86214480,162.56579792,39.91171219
-42.43479566,7.92717086,1.45400659,1.37938088,3.01189330

>  <Name>
design_4

>  <RI>
0

>  <Rbt.Current_Directory>
/home/ziqiaoxu/icml18-jtnn/VAEdesign

>  <Rbt.Executable>
rbdock ($Id: //depot/dev/client3/rdock/2013.1/src/exe/rbdock.cxx#4 $)

>  <Rbt.Library>
libRbt.so (2013.1, Build901 2013/11/27)

>  <Rbt.Parameter_File>
/export/apps/rDock/src/rDock_2013.1_src//data/scripts/dock.prm

>  <Rbt.Receptor>
/home/ziqiaoxu/icml18-jtnn/VAEdesign/targets/RdRp-SARS-CoV-2/pocket_docking.prm

>  <SCORE>
-23.217

>  <SCORE.INTER>
-19.7813

>  <SCORE.INTER.CONST>
1

>  <SCORE.INTER.POLAR>
-1.30761

>  <SCORE.INTER.REPUL>
0.0739911

>  <SCORE.INTER.ROT>
5

>  <SCORE.INTER.VDW>
-26.1054

>  <SCORE.INTER.norm>
-0.860055

>  <SCORE.INTRA>
-3.4357

>  <SCORE.INTRA.DIHEDRAL>
-7.49316

>  <SCORE.INTRA.DIHEDRAL.0>
11.9767

>  <SCORE.INTRA.POLAR>
0

>  <SCORE.INTRA.POLAR.0>
0

>  <SCORE.INTRA.REPUL>
0

>  <SCORE.INTRA.REPUL.0>
0

>  <SCORE.INTRA.VDW>
0.310883

>  <SCORE.INTRA.VDW.0>
-2.16785

>  <SCORE.INTRA.norm>
-0.149378

>  <SCORE.RESTR>
0

>  <SCORE.RESTR.CAVITY>
0

>  <SCORE.RESTR.norm>
0

>  <SCORE.SYSTEM>
0

>  <SCORE.SYSTEM.CONST>
0

>  <SCORE.SYSTEM.DIHEDRAL>
0

>  <SCORE.SYSTEM.norm>
0

>  <SCORE.heavy>
23

>  <SCORE.norm>
-1.00943

$$$$
design_2
 OpenBabel05252019093D

 24 27  0  0  0  0  0  0  0  0999 V2000
   41.2349  -44.3795   10.9940 C   0  0  0  0  0  0  0  0  0  0  0  0
   40.8653  -45.3088    9.9067 C   0  0  0  0  0  0  0  0  0  0  0  0
   39.7530  -46.0875    9.9745 N   0  0  0  0  0  0  0  0  0  0  0  0
   39.6443  -46.8102    8.8547 C   0  0  0  0  0  0  0  0  0  0  0  0
   38.7055  -47.7493    8.4241 C   0  0  0  0  0  0  0  0  0  0  0  0
   38.8454  -48.3499    7.2031 C   0  0  0  0  0  0  0  0  0  0  0  0
   39.8950  -48.0619    6.3630 C   0  0  0  0  0  0  0  0  0  0  0  0
   40.8207  -47.1357    6.7876 C   0  0  0  0  0  0  0  0  0  0  0  0
   40.6930  -46.5257    8.0085 C   0  0  0  0  0  0  0  0  0  0  0  0
   41.4622  -45.5546    8.7163 C   0  0  0  0  0  0  0  0  0  0  0  0
   42.6743  -45.0195    8.1785 C   0  0  0  0  0  0  0  0  0  0  0  0
   43.1325  -43.9414    8.6382 O   0  0  0  0  0  0  0  0  0  0  0  0
   43.4160  -45.6174    7.1435 N   0  0  0  0  0  0  0  0  0  0  0  0
   44.6456  -45.0522    6.6133 C   0  0  0  0  0  0  0  0  0  0  0  0
   44.4965  -44.4086    5.2859 C   0  0  0  0  0  0  0  0  0  0  0  0
   45.1848  -45.1531    4.1984 C   0  0  0  0  0  0  0  0  0  0  0  0
   45.0692  -44.9595    2.8569 N   0  0  0  0  0  0  0  0  0  0  0  0
   45.8723  -45.8563    2.2467 C   0  0  0  0  0  0  0  0  0  0  0  0
   46.1464  -46.1118    0.9183 C   0  0  0  0  0  0  0  0  0  0  0  0
   47.0186  -47.0989    0.5491 C   0  0  0  0  0  0  0  0  0  0  0  0
   47.6497  -47.8689    1.5128 C   0  0  0  0  0  0  0  0  0  0  0  0
   47.3700  -47.6067    2.8353 C   0  0  0  0  0  0  0  0  0  0  0  0
   46.4978  -46.6191    3.1990 C   0  0  0  0  0  0  0  0  0  0  0  0
   46.0471  -46.1545    4.3946 N   0  0  0  0  0  0  0  0  0  0  0  0
  1  2  1  0  0  0  0
  2  3  1  0  0  0  0
  3  4  1  0  0  0  0
  4  5  2  0  0  0  0
  5  6  1  0  0  0  0
  6  7  2  0  0  0  0
  7  8  1  0  0  0  0
  8  9  2  0  0  0  0
  9 10  1  0  0  0  0
  9  4  1  0  0  0  0
 10 11  1  0  0  0  0
 10  2  2  0  0  0  0
 11 12  2  0  0  0  0
 11 13  1  0  0  0  0
 13 14  1  0  0  0  0
 14 15  1  0  0  0  0
 15 16  1  0  0  0  0
 16 17  2  0  0  0  0
 17 18  1  0  0  0  0
 18 19  2  0  0  0  0
 19 20  1  0  0  0  0
 20 21  2  0  0  0  0
 21 22  1  0  0  0  0
 22 23  2  0  0  0  0
 23 24  1  0  0  0  0
 23 18  1  0  0  0  0
 24 16  1  0  0  0  0
M  END
>  <CHROM.1>
-20.50039835,-104.89121701,-111.18699223,168.59720215,43.21938476,-46.10652528
6.04738729,-2.48331838,-0.54376267,-2.20482012

>  <Name>
design_2

>  <RI>
0

>  <Rbt.Current_Directory>
/home/ziqiaoxu/icml18-jtnn/VAEdesign

>  <Rbt.Executable>
rbdock ($Id: //depot/dev/client3/rdock/2013.1/src/exe/rbdock.cxx#4 $)

>  <Rbt.Library>
libRbt.so (2013.1, Build901 2013/11/27)

>  <Rbt.Parameter_File>
/export/apps/rDock/src/rDock_2013.1_src//data/scripts/dock.prm

>  <Rbt.Receptor>
/home/ziqiaoxu/icml18-jtnn/VAEdesign/targets/RdRp-SARS-CoV-2/pocket_docking.prm

>  <SCORE>
-20.2833

>  <SCORE.INTER>
-23.1559

>  <SCORE.INTER.CONST>
1

>  <SCORE.INTER.POLAR>
-1.89884

>  <SCORE.INTER.REPUL>
0

>  <SCORE.INTER.ROT>
4

>  <SCORE.INTER.VDW>
-26.0999

>  <SCORE.INTER.norm>
-0.964829

>  <SCORE.INTRA>
2.8726

>  <SCORE.INTRA.DIHEDRAL>
5.51125

>  <SCORE.INTRA.DIHEDRAL.0>
3.50951

>  <SCORE.INTRA.POLAR>
0

>  <SCORE.INTRA.POLAR.0>
0

>  <SCORE.INTRA.REPUL>
0

>  <SCORE.INTRA.REPUL.0>
0

>  <SCORE.INTRA.VDW>
0.116974

>  <SCORE.INTRA.VDW.0>
-0.561554

>  <SCORE.INTRA.norm>
0.119692

>  <SCORE.RESTR>
0

>  <SCORE.RESTR.CAVITY>
0

>  <SCORE.RESTR.norm>
0

>  <SCORE.SYSTEM>
0

>  <SCORE.SYSTEM.CONST>
0

>  <SCORE.SYSTEM.DIHEDRAL>
0

>  <SCORE.SYSTEM.norm>
0

>  <SCORE.heavy>
24

>  <SCORE.norm>
-0.845137

$$$$
design_4
 OpenBabel05252019093D

 23 24  0  0  0  0  0  0  0  0999 V2000
   40.6633  -38.8598    3.2601 N   0  0  0  0  0  0  0  0  0  0  0  0
   40.0812  -37.5491    3.3409 C   0  0  0  0  0  0  0  0  0  0  0  0
   39.2231  -37.2324    2.5270 O   0  0  0  0  0  0  0  0  0  0  0  0
   40.5701  -36.6790    4.4097 C   0  0  0  0  0  0  0  0  0  0  0  0
   39.8247  -36.6719    5.6770 C   0  0  0  0  0  0  0  0  0  0  0  0
   39.7843  -37.9354    6.4463 C   0  0  0  0  0  0  0  0  0  0  0  0
   39.0749  -39.0431    6.0960 C   0  0  0  0  0  0  0  0  0  0  0  0
   39.1002  -40.2015    6.8980 C   0  0  0  0  0  0  0  0  0  0  0  0
   39.8135  -40.2729    8.0310 C   0  0  0  0  0  0  0  0  0  0  0  0
   39.8910  -41.3303    8.9917 N   0  0  0  0  0  0  0  0  0  0  0  0
   39.9603  -42.2765    9.8512 C   0  0  0  0  0  0  0  0  0  0  0  0
   39.7477  -42.2568   11.1325 O   0  0  0  0  0  0  0  0  0  0  0  0
   40.3330  -43.6149    9.4058 N   0  0  0  0  0  0  0  0  0  0  0  0
   40.4362  -44.7673   10.1635 C   0  0  0  0  0  0  0  0  0  0  0  0
   39.7757  -46.0325    9.8914 C   0  0  0  0  0  0  0  0  0  0  0  0
   39.8056  -46.7430    8.6312 C   0  0  0  0  0  0  0  0  0  0  0  0
   40.6313  -46.4943    7.5333 C   0  0  0  0  0  0  0  0  0  0  0  0
   40.5795  -47.2614    6.3877 C   0  0  0  0  0  0  0  0  0  0  0  0
   39.6924  -48.3215    6.2855 C   0  0  0  0  0  0  0  0  0  0  0  0
   38.8806  -48.5537    7.3838 C   0  0  0  0  0  0  0  0  0  0  0  0
   38.9436  -47.8032    8.4851 N   0  0  0  0  0  0  0  0  0  0  0  0
   40.5598  -39.1134    8.3964 C   0  0  0  0  0  0  0  0  0  0  0  0
   40.5370  -38.0003    7.6296 C   0  0  0  0  0  0  0  0  0  0  0  0
  1  2  1  0  0  0  0
  2  3  2  0  0  0  0
  2  4  1  0  0  0  0
  4  5  1  0  0  0  0
  5  6  1  0  0  0  0
  6  7  2  0  0  0  0
  7  8  1  0  0  0  0
  8  9  2  0  0  0  0
  9 10  1  0  0  0  0
  9 22  1  0  0  0  0
 10 11  1  0  0  0  0
 11 12  2  0  0  0  0
 11 13  1  0  0  0  0
 13 14  1  0  0  0  0
 14 15  1  0  0  0  0
 15 16  1  0  0  0  0
 16 17  2  0  0  0  0
 17 18  1  0  0  0  0
 18 19  2  0  0  0  0
 19 20  1  0  0  0  0
 20 21  2  0  0  0  0
 21 16  1  0  0  0  0
 22 23  2  0  0  0  0
 23  6  1  0  0  0  0
M  END
>  <CHROM.1>
-93.65294631,63.67488090,-71.98709027,33.23628089,126.32046945,51.55042307
11.92465715,39.91245359,-41.99798718,7.23985439,1.08150227,-1.52943140,-0.85178795

>  <Name>
design_4

>  <RI>
0

>  <Rbt.Current_Directory>
/home/ziqiaoxu/icml18-jtnn/VAEdesign

>  <Rbt.Executable>
rbdock ($Id: //depot/dev/client3/rdock/2013.1/src/exe/rbdock.cxx#4 $)

>  <Rbt.Library>
libRbt.so (2013.1, Build901 2013/11/27)

>  <Rbt.Parameter_File>
/export/apps/rDock/src/rDock_2013.1_src//data/scripts/dock.prm

>  <Rbt.Receptor>
/home/ziqiaoxu/icml18-jtnn/VAEdesign/targets/RdRp-SARS-CoV-2/pocket_docking.prm

>  <SCORE>
-21.334

>  <SCORE.INTER>
-22.4187

>  <SCORE.INTER.CONST>
1

>  <SCORE.INTER.POLAR>
-2.57752

>  <SCORE.INTER.REPUL>
0.00882453

>  <SCORE.INTER.ROT>
7

>  <SCORE.INTER.VDW>
-26.0993

>  <SCORE.INTER.norm>
-0.974727

>  <SCORE.INTRA>
1.0847

>  <SCORE.INTRA.DIHEDRAL>
0.0573244

>  <SCORE.INTRA.DIHEDRAL.0>
10.3212

>  <SCORE.INTRA.POLAR>
0

>  <SCORE.INTRA.POLAR.0>
0

>  <SCORE.INTRA.REPUL>
0

>  <SCORE.INTRA.REPUL.0>
0

>  <SCORE.INTRA.VDW>
1.05604

>  <SCORE.INTRA.VDW.0>
-2.19014

>  <SCORE.INTRA.norm>
0.047161

>  <SCORE.RESTR>
0

>  <SCORE.RESTR.CAVITY>
0

>  <SCORE.RESTR.norm>
0

>  <SCORE.SYSTEM>
0

>  <SCORE.SYSTEM.CONST>
0

>  <SCORE.SYSTEM.DIHEDRAL>
0

>  <SCORE.SYSTEM.norm>
0

>  <SCORE.heavy>
23

>  <SCORE.norm>
-0.927566

$$$$
design_17
 OpenBabel05252019093D

 27 29  0  0  0  0  0  0  0  0999 V2000
   43.4424  -46.2774   -0.5321 C   0  0  0  0  0  0  0  0  0  0  0  0
   44.4716  -46.1556    0.5514 C   0  0  0  0  0  0  0  0  0  0  0  0
   44.1070  -45.9999    1.8739 C   0  0  0  0  0  0  0  0  0  0  0  0
   45.0905  -45.8919    2.8311 C   0  0  0  0  0  0  0  0  0  0  0  0
   46.4362  -45.9311    2.5373 C   0  0  0  0  0  0  0  0  0  0  0  0
   47.4066  -45.8060    3.6338 C   0  0  2  0  0  0  0  0  0  0  0  0
   48.2160  -47.0912    3.6940 C   0  0  0  0  0  0  0  0  0  0  0  0
   46.7879  -45.5964    4.9274 N   0  0  0  0  0  0  0  0  0  0  0  0
   46.6327  -44.3188    5.5106 C   0  0  0  0  0  0  0  0  0  0  0  0
   47.0439  -43.3185    4.8913 O   0  0  0  0  0  0  0  0  0  0  0  0
   45.9938  -44.1613    6.8345 C   0  0  0  0  0  0  0  0  0  0  0  0
   44.9165  -45.1715    6.9827 C   0  0  0  0  0  0  0  0  0  0  0  0
   43.5864  -44.8342    6.4215 C   0  0  0  0  0  0  0  0  0  0  0  0
   42.4784  -45.5934    6.8863 N   0  0  0  0  0  0  0  0  0  0  0  0
   42.0704  -45.5332    8.1684 C   0  0  0  0  0  0  0  0  0  0  0  0
   42.6485  -44.7895    9.0210 O   0  0  0  0  0  0  0  0  0  0  0  0
   41.0232  -46.2577    8.6303 N   0  0  0  0  0  0  0  0  0  0  0  0
   40.3214  -47.0910    7.8197 C   0  0  0  0  0  0  0  0  0  0  0  0
   39.2508  -47.8280    8.2998 C   0  0  0  0  0  0  0  0  0  0  0  0
   38.5575  -48.6637    7.4564 C   0  0  0  0  0  0  0  0  0  0  0  0
   38.9530  -48.7449    6.1412 C   0  0  0  0  0  0  0  0  0  0  0  0
   40.0214  -48.0077    5.6672 C   0  0  0  0  0  0  0  0  0  0  0  0
   40.7205  -47.1678    6.5086 C   0  0  0  0  0  0  0  0  0  0  0  0
   41.7961  -46.4111    6.0754 C   0  0  0  0  0  0  0  0  0  0  0  0
   42.1054  -46.5279    4.8815 O   0  0  0  0  0  0  0  0  0  0  0  0
   46.8085  -46.0870    1.2128 C   0  0  0  0  0  0  0  0  0  0  0  0
   45.8190  -46.1943    0.2623 C   0  0  0  0  0  0  0  0  0  0  0  0
  1  2  1  0  0  0  0
  2  3  2  0  0  0  0
  3  4  1  0  0  0  0
  4  5  2  0  0  0  0
  5  6  1  0  0  0  0
  5 26  1  0  0  0  0
  6  7  1  1  0  0  0
  6  8  1  0  0  0  0
  8  9  1  0  0  0  0
  9 10  2  0  0  0  0
  9 11  1  0  0  0  0
 11 12  1  0  0  0  0
 12 13  1  0  0  0  0
 13 14  1  0  0  0  0
 14 15  1  0  0  0  0
 15 16  2  0  0  0  0
 15 17  1  0  0  0  0
 17 18  1  0  0  0  0
 18 19  2  0  0  0  0
 19 20  1  0  0  0  0
 20 21  2  0  0  0  0
 21 22  1  0  0  0  0
 22 23  2  0  0  0  0
 23 24  1  0  0  0  0
 23 18  1  0  0  0  0
 24 25  2  0  0  0  0
 24 14  1  0  0  0  0
 26 27  2  0  0  0  0
 27  2  1  0  0  0  0
M  END
>  <CHROM.1>
117.63736565,-97.16281645,-34.90725523,-84.62322362,-162.18635342,65.38019918
43.63147497,-46.09101293,5.10832338,0.61208384,-0.41949835,-1.82950964

>  <Name>
design_17

>  <RI>
0

>  <Rbt.Current_Directory>
/home/ziqiaoxu/icml18-jtnn/VAEdesign

>  <Rbt.Executable>
rbdock ($Id: //depot/dev/client3/rdock/2013.1/src/exe/rbdock.cxx#4 $)

>  <Rbt.Library>
libRbt.so (2013.1, Build901 2013/11/27)

>  <Rbt.Parameter_File>
/export/apps/rDock/src/rDock_2013.1_src//data/scripts/dock.prm

>  <Rbt.Receptor>
/home/ziqiaoxu/icml18-jtnn/VAEdesign/targets/RdRp-SARS-CoV-2/pocket_docking.prm

>  <SCORE>
-15.9153

>  <SCORE.INTER>
-17.6643

>  <SCORE.INTER.CONST>
1

>  <SCORE.INTER.POLAR>
-0.890625

>  <SCORE.INTER.REPUL>
0.0120949

>  <SCORE.INTER.ROT>
6

>  <SCORE.INTER.VDW>
-26.0966

>  <SCORE.INTER.norm>
-0.654232

>  <SCORE.INTRA>
1.74895

>  <SCORE.INTRA.DIHEDRAL>
3.71672

>  <SCORE.INTRA.DIHEDRAL.0>
5.38117

>  <SCORE.INTRA.POLAR>
0

>  <SCORE.INTRA.POLAR.0>
0

>  <SCORE.INTRA.REPUL>
0

>  <SCORE.INTRA.REPUL.0>
0

>  <SCORE.INTRA.VDW>
-0.109408

>  <SCORE.INTRA.VDW.0>
-0.139245

>  <SCORE.INTRA.norm>
0.064776

>  <SCORE.RESTR>
0

>  <SCORE.RESTR.CAVITY>
0

>  <SCORE.RESTR.norm>
0

>  <SCORE.SYSTEM>
0

>  <SCORE.SYSTEM.CONST>
0

>  <SCORE.SYSTEM.DIHEDRAL>
0

>  <SCORE.SYSTEM.norm>
0

>  <SCORE.heavy>
27

>  <SCORE.norm>
-0.589456

$$$$
design_8
 OpenBabel05252019093D

 26 27  0  0  0  0  0  0  0  0999 V2000
   39.1492  -48.8687    6.7516 C   0  0  0  0  0  0  0  0  0  0  0  0
   39.1265  -47.3652    6.5650 C   0  0  0  0  0  0  0  0  0  0  0  0
   37.9280  -46.6873    7.1357 C   0  0  1  0  0  0  0  0  0  0  0  0
   38.0761  -46.7154    8.6370 C   0  0  0  0  0  0  0  0  0  0  0  0
   37.1559  -47.2271    9.2464 O   0  0  0  0  0  0  0  0  0  0  0  0
   39.2719  -46.1460    9.2162 N   0  0  0  0  0  0  0  0  0  0  0  0
   40.3348  -45.6399    9.7362 C   0  0  0  0  0  0  0  0  0  0  0  0
   41.2113  -44.7667    8.8687 C   0  0  0  0  0  0  0  0  0  0  0  0
   42.4475  -45.1996    8.4763 C   0  0  0  0  0  0  0  0  0  0  0  0
   43.2782  -44.3523    7.7050 C   0  0  0  0  0  0  0  0  0  0  0  0
   42.8700  -43.0941    7.3395 C   0  0  0  0  0  0  0  0  0  0  0  0
   41.6306  -42.6613    7.7347 C   0  0  0  0  0  0  0  0  0  0  0  0
   41.0910  -41.3824    7.4942 N   0  0  0  0  0  0  0  0  0  0  0  0
   41.6417  -40.4755    6.5851 C   0  0  0  0  0  0  0  0  0  0  0  0
   42.6595  -40.6604    5.8897 O   0  0  0  0  0  0  0  0  0  0  0  0
   40.9420  -39.1418    6.4258 C   0  0  0  0  0  0  0  0  0  0  0  0
   39.5334  -39.3734    5.9263 C   0  0  0  0  0  0  0  0  0  0  0  0
   40.8635  -38.4625    7.7665 C   0  0  0  0  0  0  0  0  0  0  0  0
   40.7993  -43.5011    8.4992 C   0  0  0  0  0  0  0  0  0  0  0  0
   37.6314  -45.3711    6.6729 N   0  0  0  0  0  0  0  0  0  0  0  0
   38.3793  -44.2833    6.8750 C   0  0  0  0  0  0  0  0  0  0  0  0
   38.0044  -43.0173    6.3916 C   0  0  0  0  0  0  0  0  0  0  0  0
   36.8285  -42.8724    5.6876 C   0  0  0  0  0  0  0  0  0  0  0  0
   36.0698  -43.9991    5.4896 C   0  0  0  0  0  0  0  0  0  0  0  0
   36.4775  -45.2196    5.9803 C   0  0  0  0  0  0  0  0  0  0  0  0
   35.7586  -46.2232    5.7810 O   0  0  0  0  0  0  0  0  0  0  0  0
  1  2  1  0  0  0  0
  3  2  1  6  0  0  0
  3  4  1  0  0  0  0
  3 20  1  0  0  0  0
  4  5  2  0  0  0  0
  4  6  1  0  0  0  0
  6  7  1  0  0  0  0
  7  8  1  0  0  0  0
  8  9  2  0  0  0  0
  9 10  1  0  0  0  0
 10 11  2  0  0  0  0
 11 12  1  0  0  0  0
 12 13  1  0  0  0  0
 12 19  2  0  0  0  0
 13 14  1  0  0  0  0
 14 15  2  0  0  0  0
 14 16  1  0  0  0  0
 16 17  1  0  0  0  0
 16 18  1  0  0  0  0
 19  8  1  0  0  0  0
 20 21  1  0  0  0  0
 21 22  2  0  0  0  0
 22 23  1  0  0  0  0
 23 24  2  0  0  0  0
 24 25  1  0  0  0  0
 25 26  2  0  0  0  0
 25 20  1  0  0  0  0
M  END
>  <CHROM.1>
72.27127161,-123.97798713,-162.95591298,-110.51845212,13.56259768,-61.31311996
-65.92465420,39.55608774,-43.95622040,7.26592107,-2.14229277,-0.38308355
-0.30599244

>  <Name>
design_8

>  <RI>
0

>  <Rbt.Current_Directory>
/home/ziqiaoxu/icml18-jtnn/VAEdesign

>  <Rbt.Executable>
rbdock ($Id: //depot/dev/client3/rdock/2013.1/src/exe/rbdock.cxx#4 $)

>  <Rbt.Library>
libRbt.so (2013.1, Build901 2013/11/27)

>  <Rbt.Parameter_File>
/export/apps/rDock/src/rDock_2013.1_src//data/scripts/dock.prm

>  <Rbt.Receptor>
/home/ziqiaoxu/icml18-jtnn/VAEdesign/targets/RdRp-SARS-CoV-2/pocket_docking.prm

>  <SCORE>
-22.0306

>  <SCORE.INTER>
-15.7143

>  <SCORE.INTER.CONST>
1

>  <SCORE.INTER.POLAR>
-0.593678

>  <SCORE.INTER.REPUL>
0

>  <SCORE.INTER.ROT>
7

>  <SCORE.INTER.VDW>
-26.0958

>  <SCORE.INTER.norm>
-0.604397

>  <SCORE.INTRA>
-6.38583

>  <SCORE.INTRA.DIHEDRAL>
-1.86509

>  <SCORE.INTRA.DIHEDRAL.0>
7.80384

>  <SCORE.INTRA.POLAR>
0

>  <SCORE.INTRA.POLAR.0>
0

>  <SCORE.INTRA.REPUL>
0

>  <SCORE.INTRA.REPUL.0>
0

>  <SCORE.INTRA.VDW>
-5.45329

>  <SCORE.INTRA.VDW.0>
2.41699

>  <SCORE.INTRA.norm>
-0.245609

>  <SCORE.RESTR>
0.0696024

>  <SCORE.RESTR.CAVITY>
0.0696024

>  <SCORE.RESTR.norm>
0.00267701

>  <SCORE.SYSTEM>
0

>  <SCORE.SYSTEM.CONST>
0

>  <SCORE.SYSTEM.DIHEDRAL>
0

>  <SCORE.SYSTEM.norm>
0

>  <SCORE.heavy>
26

>  <SCORE.norm>
-0.847329

$$$$
design_9
 OpenBabel05252019093D

 24 26  0  0  0  0  0  0  0  0999 V2000
   43.5078  -45.9152   -0.6347 N   0  0  0  0  0  0  0  0  0  0  0  0
   44.7086  -46.3250   -0.0284 C   0  0  0  0  0  0  0  0  0  0  0  0
   45.5613  -46.9439   -0.6947 O   0  0  0  0  0  0  0  0  0  0  0  0
   44.9619  -46.0325    1.3667 C   0  0  0  0  0  0  0  0  0  0  0  0
   46.0089  -46.6402    2.0093 C   0  0  0  0  0  0  0  0  0  0  0  0
   46.2608  -46.3669    3.3466 C   0  0  0  0  0  0  0  0  0  0  0  0
   45.4951  -45.4944    4.0838 C   0  0  0  0  0  0  0  0  0  0  0  0
   45.7163  -45.1926    5.4404 N   0  0  0  0  0  0  0  0  0  0  0  0
   45.4712  -43.9829    6.1173 C   0  0  0  0  0  0  0  0  0  0  0  0
   45.0016  -42.9538    5.5925 O   0  0  0  0  0  0  0  0  0  0  0  0
   45.8044  -43.9301    7.5967 C   0  0  0  0  0  0  0  0  0  0  0  0
   44.7472  -44.6802    8.3278 C   0  0  0  0  0  0  0  0  0  0  0  0
   43.4369  -43.9439    8.3608 C   0  0  0  0  0  0  0  0  0  0  0  0
   42.3120  -44.9396    8.2122 C   0  0  0  0  0  0  0  0  0  0  0  0
   41.1905  -45.0178    8.9035 N   0  0  0  0  0  0  0  0  0  0  0  0
   40.3191  -45.9567    8.6348 C   0  0  0  0  0  0  0  0  0  0  0  0
   39.0887  -46.1493    9.2953 C   0  0  0  0  0  0  0  0  0  0  0  0
   38.2764  -47.1745    8.9075 C   0  0  0  0  0  0  0  0  0  0  0  0
   38.5548  -48.0724    7.8940 C   0  0  0  0  0  0  0  0  0  0  0  0
   39.7663  -47.8735    7.2521 C   0  0  0  0  0  0  0  0  0  0  0  0
   40.6250  -46.8283    7.6271 C   0  0  0  0  0  0  0  0  0  0  0  0
   42.1534  -46.2460    7.1213 S   0  0  0  0  0  0  0  0  0  0  0  0
   44.4351  -44.8940    3.3909 C   0  0  0  0  0  0  0  0  0  0  0  0
   44.1740  -45.1515    2.0771 C   0  0  0  0  0  0  0  0  0  0  0  0
  1  2  1  0  0  0  0
  2  3  2  0  0  0  0
  2  4  1  0  0  0  0
  4  5  2  0  0  0  0
  5  6  1  0  0  0  0
  6  7  2  0  0  0  0
  7  8  1  0  0  0  0
  7 23  1  0  0  0  0
  8  9  1  0  0  0  0
  9 10  2  0  0  0  0
  9 11  1  0  0  0  0
 11 12  1  0  0  0  0
 12 13  1  0  0  0  0
 13 14  1  0  0  0  0
 14 15  2  0  0  0  0
 15 16  1  0  0  0  0
 16 17  2  0  0  0  0
 17 18  1  0  0  0  0
 18 19  2  0  0  0  0
 19 20  1  0  0  0  0
 20 21  2  0  0  0  0
 21 22  1  0  0  0  0
 21 16  1  0  0  0  0
 22 14  1  0  0  0  0
 23 24  2  0  0  0  0
 24  4  1  0  0  0  0
M  END
>  <CHROM.1>
168.04425473,148.10238442,-75.34464332,-72.12795598,142.06944729,134.71956654
43.22647543,-45.69972236,5.45444991,0.90215848,-0.48469047,-1.87950995

>  <Name>
design_9

>  <RI>
0

>  <Rbt.Current_Directory>
/home/ziqiaoxu/icml18-jtnn/VAEdesign

>  <Rbt.Executable>
rbdock ($Id: //depot/dev/client3/rdock/2013.1/src/exe/rbdock.cxx#4 $)

>  <Rbt.Library>
libRbt.so (2013.1, Build901 2013/11/27)

>  <Rbt.Parameter_File>
/export/apps/rDock/src/rDock_2013.1_src//data/scripts/dock.prm

>  <Rbt.Receptor>
/home/ziqiaoxu/icml18-jtnn/VAEdesign/targets/RdRp-SARS-CoV-2/pocket_docking.prm

>  <SCORE>
-19.6569

>  <SCORE.INTER>
-20.9418

>  <SCORE.INTER.CONST>
1

>  <SCORE.INTER.POLAR>
-1.85359

>  <SCORE.INTER.REPUL>
0.01082

>  <SCORE.INTER.ROT>
6

>  <SCORE.INTER.VDW>
-26.0937

>  <SCORE.INTER.norm>
-0.872575

>  <SCORE.INTRA>
1.28493

>  <SCORE.INTRA.DIHEDRAL>
8.6732

>  <SCORE.INTRA.DIHEDRAL.0>
2.45426

>  <SCORE.INTRA.POLAR>
0

>  <SCORE.INTRA.POLAR.0>
0

>  <SCORE.INTRA.REPUL>
0

>  <SCORE.INTRA.REPUL.0>
0

>  <SCORE.INTRA.VDW>
-3.05167

>  <SCORE.INTRA.VDW.0>
1.42313

>  <SCORE.INTRA.norm>
0.0535388

>  <SCORE.RESTR>
0

>  <SCORE.RESTR.CAVITY>
0

>  <SCORE.RESTR.norm>
0

>  <SCORE.SYSTEM>
0

>  <SCORE.SYSTEM.CONST>
0

>  <SCORE.SYSTEM.DIHEDRAL>
0

>  <SCORE.SYSTEM.norm>
0

>  <SCORE.heavy>
24

>  <SCORE.norm>
-0.819037

$$$$
design_0
 OpenBabel05252019093D

 24 26  0  0  0  0  0  0  0  0999 V2000
   40.3313  -45.9346   10.9056 N   0  0  0  0  0  0  0  0  0  0  0  0
   40.9410  -45.7233    9.6499 C   0  0  0  0  0  0  0  0  0  0  0  0
   41.8591  -44.8848    9.5239 O   0  0  0  0  0  0  0  0  0  0  0  0
   40.5017  -46.4836    8.4935 C   0  0  0  0  0  0  0  0  0  0  0  0
   39.4958  -47.4450    8.6151 C   0  0  0  0  0  0  0  0  0  0  0  0
   39.1064  -48.1441    7.4996 C   0  0  0  0  0  0  0  0  0  0  0  0
   39.6725  -47.9366    6.2441 C   0  0  0  0  0  0  0  0  0  0  0  0
   40.6548  -47.0060    6.0991 C   0  0  0  0  0  0  0  0  0  0  0  0
   41.3100  -46.7258    4.8876 N   0  0  0  0  0  0  0  0  0  0  0  0
   42.4632  -45.9720    4.7029 C   0  0  0  0  0  0  0  0  0  0  0  0
   43.0582  -45.4352    5.6533 O   0  0  0  0  0  0  0  0  0  0  0  0
   43.0375  -45.7753    3.3466 C   0  0  0  0  0  0  0  0  0  0  0  0
   42.6377  -44.4729    2.7380 C   0  0  0  0  0  0  0  0  0  0  0  0
   42.9006  -44.4502    1.2802 C   0  0  0  0  0  0  0  0  0  0  0  0
   43.1863  -43.0317    0.8320 C   0  0  0  0  0  0  0  0  0  0  0  0
   44.1300  -42.5771    0.0540 N   0  0  0  0  0  0  0  0  0  0  0  0
   44.2133  -41.3041   -0.2196 C   0  0  0  0  0  0  0  0  0  0  0  0
   45.1789  -40.6921   -1.0399 C   0  0  0  0  0  0  0  0  0  0  0  0
   45.1571  -39.3440   -1.2477 C   0  0  0  0  0  0  0  0  0  0  0  0
   44.2200  -38.5018   -0.6900 C   0  0  0  0  0  0  0  0  0  0  0  0
   43.2728  -39.0972    0.1138 C   0  0  0  0  0  0  0  0  0  0  0  0
   43.2757  -40.4800    0.3415 C   0  0  0  0  0  0  0  0  0  0  0  0
   42.3303  -41.5956    1.2305 S   0  0  0  0  0  0  0  0  0  0  0  0
   41.0335  -46.3068    7.2517 C   0  0  0  0  0  0  0  0  0  0  0  0
  1  2  1  0  0  0  0
  2  3  2  0  0  0  0
  2  4  1  0  0  0  0
  4  5  2  0  0  0  0
  5  6  1  0  0  0  0
  6  7  2  0  0  0  0
  7  8  1  0  0  0  0
  8  9  1  0  0  0  0
  8 24  2  0  0  0  0
  9 10  1  0  0  0  0
 10 11  2  0  0  0  0
 10 12  1  0  0  0  0
 12 13  1  0  0  0  0
 13 14  1  0  0  0  0
 14 15  1  0  0  0  0
 15 16  2  0  0  0  0
 16 17  1  0  0  0  0
 17 18  2  0  0  0  0
 18 19  1  0  0  0  0
 19 20  2  0  0  0  0
 20 21  1  0  0  0  0
 21 22  2  0  0  0  0
 22 23  1  0  0  0  0
 22 17  1  0  0  0  0
 23 15  1  0  0  0  0
 24  4  1  0  0  0  0
M  END
>  <CHROM.1>
-1.27121744,-167.85258325,97.82611069,-164.54356077,-150.68412776,134.11857952
42.24393869,-44.04561900,3.95365120,-2.84420004,-1.24063456,-2.21062456

>  <Name>
design_0

>  <RI>
0

>  <Rbt.Current_Directory>
/home/ziqiaoxu/icml18-jtnn/VAEdesign

>  <Rbt.Executable>
rbdock ($Id: //depot/dev/client3/rdock/2013.1/src/exe/rbdock.cxx#4 $)

>  <Rbt.Library>
libRbt.so (2013.1, Build901 2013/11/27)

>  <Rbt.Parameter_File>
/export/apps/rDock/src/rDock_2013.1_src//data/scripts/dock.prm

>  <Rbt.Receptor>
/home/ziqiaoxu/icml18-jtnn/VAEdesign/targets/RdRp-SARS-CoV-2/pocket_docking.prm

>  <SCORE>
-21.489

>  <SCORE.INTER>
-22.0668

>  <SCORE.INTER.CONST>
1

>  <SCORE.INTER.POLAR>
-2.24478

>  <SCORE.INTER.REPUL>
0.0501392

>  <SCORE.INTER.ROT>
6

>  <SCORE.INTER.VDW>
-26.0852

>  <SCORE.INTER.norm>
-0.919448

>  <SCORE.INTRA>
0.577749

>  <SCORE.INTRA.DIHEDRAL>
3.90498

>  <SCORE.INTRA.DIHEDRAL.0>
3.63826

>  <SCORE.INTRA.POLAR>
0

>  <SCORE.INTRA.POLAR.0>
0

>  <SCORE.INTRA.REPUL>
0

>  <SCORE.INTRA.REPUL.0>
0

>  <SCORE.INTRA.VDW>
-1.37474

>  <SCORE.INTRA.VDW.0>
0.739277

>  <SCORE.INTRA.norm>
0.0240729

>  <SCORE.RESTR>
0

>  <SCORE.RESTR.CAVITY>
0

>  <SCORE.RESTR.norm>
0

>  <SCORE.SYSTEM>
0

>  <SCORE.SYSTEM.CONST>
0

>  <SCORE.SYSTEM.DIHEDRAL>
0

>  <SCORE.SYSTEM.norm>
0

>  <SCORE.heavy>
24

>  <SCORE.norm>
-0.895375

$$$$
design_4
 OpenBabel05252019093D

 22 24  0  0  0  0  0  0  0  0999 V2000
   38.9896  -45.6923    3.4153 C   0  0  0  0  0  0  0  0  0  0  0  0
   38.6749  -46.3567    4.6912 N   0  0  0  0  0  0  0  0  0  0  0  0
   37.3111  -46.3090    5.1382 C   0  0  0  0  0  0  0  0  0  0  0  0
   37.0033  -44.8886    5.5656 C   0  0  0  0  0  0  0  0  0  0  0  0
   35.7518  -44.3551    5.3524 C   0  0  0  0  0  0  0  0  0  0  0  0
   35.9421  -42.7774    5.9800 S   0  0  0  0  0  0  0  0  0  0  0  0
   37.5727  -42.8868    6.4680 C   0  0  0  0  0  0  0  0  0  0  0  0
   37.8851  -44.1250    6.1246 N   0  0  0  0  0  0  0  0  0  0  0  0
   39.6603  -47.0117    5.4430 C   0  0  0  0  0  0  0  0  0  0  0  0
   40.8367  -47.0214    4.9783 O   0  0  0  0  0  0  0  0  0  0  0  0
   39.3992  -47.6666    6.7102 C   0  0  0  0  0  0  0  0  0  0  0  0
   39.9180  -46.8405    7.8833 C   0  0  0  0  0  0  0  0  0  0  0  0
   39.1760  -46.6183    9.0139 C   0  0  0  0  0  0  0  0  0  0  0  0
   40.2443  -45.6642    9.9421 S   0  0  0  0  0  0  0  0  0  0  0  0
   41.5577  -45.6015    8.8565 C   0  0  0  0  0  0  0  0  0  0  0  0
   42.8459  -44.9482    8.9787 C   0  0  0  0  0  0  0  0  0  0  0  0
   43.1678  -44.2806   10.1338 C   0  0  0  0  0  0  0  0  0  0  0  0
   44.4096  -43.6415   10.2726 C   0  0  0  0  0  0  0  0  0  0  0  0
   45.2921  -43.7015    9.2249 C   0  0  0  0  0  0  0  0  0  0  0  0
   44.9397  -44.3774    8.0830 C   0  0  0  0  0  0  0  0  0  0  0  0
   43.7292  -44.9884    7.9743 N   0  0  0  0  0  0  0  0  0  0  0  0
   41.1136  -46.3133    7.8382 N   0  0  0  0  0  0  0  0  0  0  0  0
  1  2  1  0  0  0  0
  2  3  1  0  0  0  0
  2  9  1  0  0  0  0
  3  4  1  0  0  0  0
  4  5  2  0  0  0  0
  5  6  1  0  0  0  0
  6  7  1  0  0  0  0
  7  8  2  0  0  0  0
  8  4  1  0  0  0  0
  9 10  2  0  0  0  0
  9 11  1  0  0  0  0
 11 12  1  0  0  0  0
 12 13  2  0  0  0  0
 13 14  1  0  0  0  0
 14 15  1  0  0  0  0
 15 16  1  0  0  0  0
 15 22  2  0  0  0  0
 16 17  2  0  0  0  0
 17 18  1  0  0  0  0
 18 19  2  0  0  0  0
 19 20  1  0  0  0  0
 20 21  2  0  0  0  0
 21 16  1  0  0  0  0
 22 12  1  0  0  0  0
M  END
>  <CHROM.1>
-70.78973742,144.80606465,-104.63253418,134.33477318,2.24085114,39.98635992
-45.17602920,7.21500525,-2.79422420,-0.41572076,0.76118769

>  <Name>
design_4

>  <RI>
0

>  <Rbt.Current_Directory>
/home/ziqiaoxu/icml18-jtnn/VAEdesign

>  <Rbt.Executable>
rbdock ($Id: //depot/dev/client3/rdock/2013.1/src/exe/rbdock.cxx#4 $)

>  <Rbt.Library>
libRbt.so (2013.1, Build901 2013/11/27)

>  <Rbt.Parameter_File>
/export/apps/rDock/src/rDock_2013.1_src//data/scripts/dock.prm

>  <Rbt.Receptor>
/home/ziqiaoxu/icml18-jtnn/VAEdesign/targets/RdRp-SARS-CoV-2/pocket_docking.prm

>  <SCORE>
-17.7475

>  <SCORE.INTER>
-15.6804

>  <SCORE.INTER.CONST>
1

>  <SCORE.INTER.POLAR>
0

>  <SCORE.INTER.REPUL>
0

>  <SCORE.INTER.ROT>
5

>  <SCORE.INTER.VDW>
-26.0804

>  <SCORE.INTER.norm>
-0.712747

>  <SCORE.INTRA>
-2.06709

>  <SCORE.INTRA.DIHEDRAL>
-2.24368

>  <SCORE.INTRA.DIHEDRAL.0>
6.22818

>  <SCORE.INTRA.POLAR>
0

>  <SCORE.INTRA.POLAR.0>
0

>  <SCORE.INTRA.REPUL>
0

>  <SCORE.INTRA.REPUL.0>
0

>  <SCORE.INTRA.VDW>
-0.945252

>  <SCORE.INTRA.VDW.0>
-1.57752

>  <SCORE.INTRA.norm>
-0.0939588

>  <SCORE.RESTR>
0

>  <SCORE.RESTR.CAVITY>
0

>  <SCORE.RESTR.norm>
0

>  <SCORE.SYSTEM>
0

>  <SCORE.SYSTEM.CONST>
0

>  <SCORE.SYSTEM.DIHEDRAL>
0

>  <SCORE.SYSTEM.norm>
0

>  <SCORE.heavy>
22

>  <SCORE.norm>
-0.806705

$$$$
design_19
 OpenBabel05252019093D

 25 27  0  0  0  0  0  0  0  0999 V2000
   42.7173  -37.3493    1.7134 C   0  0  0  0  0  0  0  0  0  0  0  0
   41.7791  -37.2180    2.8939 C   0  0  0  0  0  0  0  0  0  0  0  0
   41.6675  -38.0387    3.9187 N   0  0  0  0  0  0  0  0  0  0  0  0
   40.8103  -37.7917    4.8603 C   0  0  0  0  0  0  0  0  0  0  0  0
   40.6438  -38.6876    6.0413 C   0  0  0  0  0  0  0  0  0  0  0  0
   40.7860  -40.0590    5.9350 C   0  0  0  0  0  0  0  0  0  0  0  0
   40.6335  -40.9100    7.0083 C   0  0  0  0  0  0  0  0  0  0  0  0
   40.3237  -40.3858    8.2565 C   0  0  0  0  0  0  0  0  0  0  0  0
   40.1631  -41.2829    9.3910 C   0  0  0  0  0  0  0  0  0  0  0  0
   40.1083  -40.7867   10.5304 O   0  0  0  0  0  0  0  0  0  0  0  0
   40.0742  -42.6669    9.1898 N   0  0  0  0  0  0  0  0  0  0  0  0
   39.9244  -43.7067   10.1478 C   0  0  0  0  0  0  0  0  0  0  0  0
   40.4237  -45.0589    9.8041 C   0  0  2  0  0  0  0  0  0  0  0  0
   40.4611  -45.9681   10.8345 O   0  0  0  0  0  0  0  0  0  0  0  0
   41.6825  -45.0672    9.0248 C   0  0  0  0  0  0  0  0  0  0  0  0
   42.7513  -44.2979    9.3403 C   0  0  0  0  0  0  0  0  0  0  0  0
   43.9299  -44.3156    8.5893 C   0  0  0  0  0  0  0  0  0  0  0  0
   44.0012  -45.1421    7.4966 C   0  0  0  0  0  0  0  0  0  0  0  0
   42.9266  -45.9332    7.1570 C   0  0  0  0  0  0  0  0  0  0  0  0
   41.7636  -45.8938    7.9258 C   0  0  0  0  0  0  0  0  0  0  0  0
   40.4081  -46.9151    7.4697 Cl  0  0  0  0  0  0  0  0  0  0  0  0
   40.1814  -39.0238    8.3675 C   0  0  0  0  0  0  0  0  0  0  0  0
   40.3383  -38.1899    7.2813 C   0  0  0  0  0  0  0  0  0  0  0  0
   40.0468  -36.6558    4.7302 C   0  0  0  0  0  0  0  0  0  0  0  0
   40.6201  -36.0191    3.2525 S   0  0  0  0  0  0  0  0  0  0  0  0
  1  2  1  0  0  0  0
  2  3  2  0  0  0  0
  3  4  1  0  0  0  0
  4  5  1  0  0  0  0
  4 24  2  0  0  0  0
  5  6  2  0  0  0  0
  6  7  1  0  0  0  0
  7  8  2  0  0  0  0
  8  9  1  0  0  0  0
  8 22  1  0  0  0  0
  9 10  2  0  0  0  0
  9 11  1  0  0  0  0
 11 12  1  0  0  0  0
 13 12  1  0  0  0  0
 13 14  1  1  0  0  0
 13 15  1  0  0  0  0
 15 16  2  0  0  0  0
 16 17  1  0  0  0  0
 17 18  2  0  0  0  0
 18 19  1  0  0  0  0
 19 20  2  0  0  0  0
 20 21  1  0  0  0  0
 20 15  1  0  0  0  0
 22 23  2  0  0  0  0
 23  5  1  0  0  0  0
 24 25  1  0  0  0  0
 25  2  1  0  0  0  0
M  END
>  <CHROM.1>
-34.72860662,168.22317420,-153.97571181,169.48822465,53.22816238,45.80645753
41.07814162,-41.57619604,7.10480426,-1.62570882,-1.07237497,2.55917880

>  <Name>
design_19

>  <RI>
0

>  <Rbt.Current_Directory>
/home/ziqiaoxu/icml18-jtnn/VAEdesign

>  <Rbt.Executable>
rbdock ($Id: //depot/dev/client3/rdock/2013.1/src/exe/rbdock.cxx#4 $)

>  <Rbt.Library>
libRbt.so (2013.1, Build901 2013/11/27)

>  <Rbt.Parameter_File>
/export/apps/rDock/src/rDock_2013.1_src//data/scripts/dock.prm

>  <Rbt.Receptor>
/home/ziqiaoxu/icml18-jtnn/VAEdesign/targets/RdRp-SARS-CoV-2/pocket_docking.prm

>  <SCORE>
-26.9558

>  <SCORE.INTER>
-19.6814

>  <SCORE.INTER.CONST>
1

>  <SCORE.INTER.POLAR>
-1.17756

>  <SCORE.INTER.REPUL>
0

>  <SCORE.INTER.ROT>
5

>  <SCORE.INTER.VDW>
-26.0777

>  <SCORE.INTER.norm>
-0.787258

>  <SCORE.INTRA>
-7.27469

>  <SCORE.INTRA.DIHEDRAL>
-11.3854

>  <SCORE.INTRA.DIHEDRAL.0>
19.3752

>  <SCORE.INTRA.POLAR>
0

>  <SCORE.INTRA.POLAR.0>
0

>  <SCORE.INTRA.REPUL>
0

>  <SCORE.INTRA.REPUL.0>
0

>  <SCORE.INTRA.VDW>
-1.58199

>  <SCORE.INTRA.VDW.0>
0.259764

>  <SCORE.INTRA.norm>
-0.290987

>  <SCORE.RESTR>
0.000276973

>  <SCORE.RESTR.CAVITY>
0.000276973

>  <SCORE.RESTR.norm>
1.10789e-05

>  <SCORE.SYSTEM>
0

>  <SCORE.SYSTEM.CONST>
0

>  <SCORE.SYSTEM.DIHEDRAL>
0

>  <SCORE.SYSTEM.norm>
0

>  <SCORE.heavy>
25

>  <SCORE.norm>
-1.07823

$$$$
design_11
 OpenBabel05252019093D

 24 26  0  0  0  0  0  0  0  0999 V2000
   40.9556  -42.4926    8.3456 O   0  0  0  0  0  0  0  0  0  0  0  0
   40.4405  -42.5414    9.5087 C   0  0  0  0  0  0  0  0  0  0  0  0
   39.4489  -41.5143    9.9262 C   0  0  0  0  0  0  0  0  0  0  0  0
   38.5054  -41.2444    8.7465 C   0  0  0  0  0  0  0  0  0  0  0  0
   39.0958  -40.1455    7.9463 C   0  0  0  0  0  0  0  0  0  0  0  0
   39.8568  -39.1312    8.4747 C   0  0  0  0  0  0  0  0  0  0  0  0
   40.1956  -38.3515    7.4491 N   0  0  0  0  0  0  0  0  0  0  0  0
   39.6793  -38.8370    6.3123 N   0  0  0  0  0  0  0  0  0  0  0  0
   39.8629  -38.2274    5.0403 C   0  0  0  0  0  0  0  0  0  0  0  0
   39.6855  -38.8887    3.8450 C   0  0  0  0  0  0  0  0  0  0  0  0
   39.8634  -38.2926    2.6161 C   0  0  0  0  0  0  0  0  0  0  0  0
   40.2431  -36.9494    2.5516 C   0  0  0  0  0  0  0  0  0  0  0  0
   40.4274  -36.2635    3.7351 C   0  0  0  0  0  0  0  0  0  0  0  0
   40.2407  -36.8918    4.9491 C   0  0  0  0  0  0  0  0  0  0  0  0
   38.9900  -39.9479    6.5729 C   0  0  0  0  0  0  0  0  0  0  0  0
   40.7879  -43.5569   10.4285 N   0  0  0  0  0  0  0  0  0  0  0  0
   41.7444  -44.5745   10.0652 C   0  0  0  0  0  0  0  0  0  0  0  0
   41.0401  -45.6152    9.2453 C   0  0  0  0  0  0  0  0  0  0  0  0
   41.5761  -46.0234    8.0327 C   0  0  0  0  0  0  0  0  0  0  0  0
   40.9108  -46.9749    7.3000 C   0  0  0  0  0  0  0  0  0  0  0  0
   39.7247  -47.5246    7.7539 C   0  0  0  0  0  0  0  0  0  0  0  0
   38.8689  -48.7416    6.8256 Cl  0  0  0  0  0  0  0  0  0  0  0  0
   39.2209  -47.0919    8.9693 C   0  0  0  0  0  0  0  0  0  0  0  0
   39.8641  -46.1328    9.7371 C   0  0  0  0  0  0  0  0  0  0  0  0
  1  2  2  0  0  0  0
  2  3  1  0  0  0  0
  2 16  1  0  0  0  0
  3  4  1  0  0  0  0
  4  5  1  0  0  0  0
  5  6  1  0  0  0  0
  6  7  2  0  0  0  0
  7  8  1  0  0  0  0
  8  9  1  0  0  0  0
  8 15  1  0  0  0  0
  9 10  2  0  0  0  0
 10 11  1  0  0  0  0
 11 12  2  0  0  0  0
 12 13  1  0  0  0  0
 13 14  2  0  0  0  0
 14  9  1  0  0  0  0
 15  5  2  0  0  0  0
 16 17  1  0  0  0  0
 17 18  1  0  0  0  0
 18 19  2  0  0  0  0
 19 20  1  0  0  0  0
 20 21  2  0  0  0  0
 21 22  1  0  0  0  0
 21 23  1  0  0  0  0
 23 24  2  0  0  0  0
 24 18  1  0  0  0  0
M  END
>  <CHROM.1>
41.23647969,-90.00266390,-31.29803346,160.43628317,-80.71339659,129.79287525
39.98233623,-42.35230029,7.27645852,-1.55777210,-1.44475289,-0.34951847

>  <Name>
design_11

>  <RI>
0

>  <Rbt.Current_Directory>
/home/ziqiaoxu/icml18-jtnn/VAEdesign

>  <Rbt.Executable>
rbdock ($Id: //depot/dev/client3/rdock/2013.1/src/exe/rbdock.cxx#4 $)

>  <Rbt.Library>
libRbt.so (2013.1, Build901 2013/11/27)

>  <Rbt.Parameter_File>
/export/apps/rDock/src/rDock_2013.1_src//data/scripts/dock.prm

>  <Rbt.Receptor>
/home/ziqiaoxu/icml18-jtnn/VAEdesign/targets/RdRp-SARS-CoV-2/pocket_docking.prm

>  <SCORE>
-18.1785

>  <SCORE.INTER>
-16.8114

>  <SCORE.INTER.CONST>
1

>  <SCORE.INTER.POLAR>
-0.628373

>  <SCORE.INTER.REPUL>
0

>  <SCORE.INTER.ROT>
6

>  <SCORE.INTER.VDW>
-26.0749

>  <SCORE.INTER.norm>
-0.700474

>  <SCORE.INTRA>
-1.3671

>  <SCORE.INTRA.DIHEDRAL>
-4.36008

>  <SCORE.INTRA.DIHEDRAL.0>
14.0481

>  <SCORE.INTRA.POLAR>
0

>  <SCORE.INTRA.POLAR.0>
0

>  <SCORE.INTRA.REPUL>
0

>  <SCORE.INTRA.REPUL.0>
0

>  <SCORE.INTRA.VDW>
0.81294

>  <SCORE.INTRA.VDW.0>
-0.607325

>  <SCORE.INTRA.norm>
-0.0569626

>  <SCORE.RESTR>
0

>  <SCORE.RESTR.CAVITY>
0

>  <SCORE.RESTR.norm>
0

>  <SCORE.SYSTEM>
0

>  <SCORE.SYSTEM.CONST>
0

>  <SCORE.SYSTEM.DIHEDRAL>
0

>  <SCORE.SYSTEM.norm>
0

>  <SCORE.heavy>
24

>  <SCORE.norm>
-0.757437

$$$$
design_7
 OpenBabel05252019093D

 23 26  0  0  0  0  0  0  0  0999 V2000
   46.5058  -45.6762    4.1408 C   0  0  0  0  0  0  0  0  0  0  0  0
   45.7615  -45.2541    5.3812 C   0  0  0  0  0  0  0  0  0  0  0  0
   44.5912  -45.6334    5.8208 N   0  0  0  0  0  0  0  0  0  0  0  0
   44.0918  -45.1544    6.9336 C   0  0  0  0  0  0  0  0  0  0  0  0
   42.7770  -45.6419    7.4317 C   0  0  0  0  0  0  0  0  0  0  0  0
   41.9715  -46.5571    6.7408 C   0  0  0  0  0  0  0  0  0  0  0  0
   40.8363  -46.7588    7.4372 N   0  0  0  0  0  0  0  0  0  0  0  0
   39.7747  -47.6447    7.0204 C   0  0  0  0  0  0  0  0  0  0  0  0
   39.3332  -47.1812    5.6375 C   0  0  0  0  0  0  0  0  0  0  0  0
   38.4065  -46.0325    5.7545 C   0  0  0  0  0  0  0  0  0  0  0  0
   38.8767  -44.7687    5.9875 C   0  0  0  0  0  0  0  0  0  0  0  0
   38.0533  -43.6671    6.1042 C   0  0  0  0  0  0  0  0  0  0  0  0
   36.6935  -43.8337    5.9826 C   0  0  0  0  0  0  0  0  0  0  0  0
   36.1990  -45.1063    5.7464 C   0  0  0  0  0  0  0  0  0  0  0  0
   37.0459  -46.1983    5.6329 C   0  0  0  0  0  0  0  0  0  0  0  0
   40.8556  -46.0211    8.5499 C   0  0  0  0  0  0  0  0  0  0  0  0
   39.9181  -45.9017    9.5347 C   0  0  0  0  0  0  0  0  0  0  0  0
   40.1875  -45.0418   10.5785 C   0  0  0  0  0  0  0  0  0  0  0  0
   41.3665  -44.3392   10.6042 C   0  0  0  0  0  0  0  0  0  0  0  0
   42.3164  -44.4775    9.5816 C   0  0  0  0  0  0  0  0  0  0  0  0
   42.0592  -45.3262    8.5479 C   0  0  0  0  0  0  0  0  0  0  0  0
   44.8603  -44.2442    7.6026 C   0  0  0  0  0  0  0  0  0  0  0  0
   46.2525  -44.1441    6.5709 S   0  0  0  0  0  0  0  0  0  0  0  0
  1  2  1  0  0  0  0
  2  3  2  0  0  0  0
  3  4  1  0  0  0  0
  4  5  1  0  0  0  0
  4 22  2  0  0  0  0
  5  6  2  0  0  0  0
  6  7  1  0  0  0  0
  7  8  1  0  0  0  0
  7 16  1  0  0  0  0
  8  9  1  0  0  0  0
  9 10  1  0  0  0  0
 10 11  2  0  0  0  0
 11 12  1  0  0  0  0
 12 13  2  0  0  0  0
 13 14  1  0  0  0  0
 14 15  2  0  0  0  0
 15 10  1  0  0  0  0
 16 17  2  0  0  0  0
 17 18  1  0  0  0  0
 18 19  2  0  0  0  0
 19 20  1  0  0  0  0
 20 21  2  0  0  0  0
 21  5  1  0  0  0  0
 21 16  1  0  0  0  0
 22 23  1  0  0  0  0
 23  2  1  0  0  0  0
M  END
>  <CHROM.1>
-3.52867622,-56.88313863,-81.14919727,79.16880971,41.55965797,-45.35760987
7.04274646,0.02715124,-0.07593944,-1.71326489

>  <Name>
design_7

>  <RI>
0

>  <Rbt.Current_Directory>
/home/ziqiaoxu/icml18-jtnn/VAEdesign

>  <Rbt.Executable>
rbdock ($Id: //depot/dev/client3/rdock/2013.1/src/exe/rbdock.cxx#4 $)

>  <Rbt.Library>
libRbt.so (2013.1, Build901 2013/11/27)

>  <Rbt.Parameter_File>
/export/apps/rDock/src/rDock_2013.1_src//data/scripts/dock.prm

>  <Rbt.Receptor>
/home/ziqiaoxu/icml18-jtnn/VAEdesign/targets/RdRp-SARS-CoV-2/pocket_docking.prm

>  <SCORE>
-16.8918

>  <SCORE.INTER>
-16.6728

>  <SCORE.INTER.CONST>
1

>  <SCORE.INTER.POLAR>
0

>  <SCORE.INTER.REPUL>
0

>  <SCORE.INTER.ROT>
4

>  <SCORE.INTER.VDW>
-26.0728

>  <SCORE.INTER.norm>
-0.724902

>  <SCORE.INTRA>
-0.21903

>  <SCORE.INTRA.DIHEDRAL>
-0.136646

>  <SCORE.INTRA.DIHEDRAL.0>
4.79724

>  <SCORE.INTRA.POLAR>
0

>  <SCORE.INTRA.POLAR.0>
0

>  <SCORE.INTRA.REPUL>
0

>  <SCORE.INTRA.REPUL.0>
0

>  <SCORE.INTRA.VDW>
-0.150707

>  <SCORE.INTRA.VDW.0>
-1.35027

>  <SCORE.INTRA.norm>
-0.00952306

>  <SCORE.RESTR>
0

>  <SCORE.RESTR.CAVITY>
0

>  <SCORE.RESTR.norm>
0

>  <SCORE.SYSTEM>
0

>  <SCORE.SYSTEM.CONST>
0

>  <SCORE.SYSTEM.DIHEDRAL>
0

>  <SCORE.SYSTEM.norm>
0

>  <SCORE.heavy>
23

>  <SCORE.norm>
-0.734425

$$$$
design_10
 OpenBabel05252019093D

 26 29  0  0  0  0  0  0  0  0999 V2000
   47.0241  -46.0149    3.3827 C   0  0  0  0  0  0  0  0  0  0  0  0
   46.4620  -45.5326    4.6586 C   0  0  0  0  0  0  0  0  0  0  0  0
   46.9941  -44.6721    5.5538 N   0  0  0  0  0  0  0  0  0  0  0  0
   46.1204  -44.5071    6.5821 C   0  0  0  0  0  0  0  0  0  0  0  0
   46.1365  -43.7705    7.7249 N   0  0  0  0  0  0  0  0  0  0  0  0
   45.0779  -43.8061    8.5881 C   0  0  0  0  0  0  0  0  0  0  0  0
   43.9763  -44.5845    8.3232 C   0  0  0  0  0  0  0  0  0  0  0  0
   42.8768  -44.6427    9.1721 C   0  0  0  0  0  0  0  0  0  0  0  0
   42.8852  -43.9538   10.2446 O   0  0  0  0  0  0  0  0  0  0  0  0
   41.8151  -45.4077    8.8796 N   0  0  0  0  0  0  0  0  0  0  0  0
   40.6943  -45.4731    9.7640 C   0  0  0  0  0  0  0  0  0  0  0  0
   39.4032  -45.6350    9.0023 C   0  0  0  0  0  0  0  0  0  0  0  0
   38.6175  -46.5128    9.3869 O   0  0  0  0  0  0  0  0  0  0  0  0
   39.1471  -44.8041    7.9141 N   0  0  0  0  0  0  0  0  0  0  0  0
   38.0404  -44.7573    7.0554 C   0  0  0  0  0  0  0  0  0  0  0  0
   37.2630  -45.8531    6.8024 C   0  0  0  0  0  0  0  0  0  0  0  0
   36.1804  -45.7533    5.9224 C   0  0  0  0  0  0  0  0  0  0  0  0
   35.8679  -44.5703    5.2945 C   0  0  0  0  0  0  0  0  0  0  0  0
   36.6461  -43.4681    5.5475 C   0  0  0  0  0  0  0  0  0  0  0  0
   37.7201  -43.5514    6.4149 C   0  0  0  0  0  0  0  0  0  0  0  0
   38.5312  -42.3108    6.6527 C   0  0  0  0  0  0  0  0  0  0  0  0
   41.8113  -46.1403    7.7345 C   0  0  0  0  0  0  0  0  0  0  0  0
   42.8862  -46.1005    6.8772 C   0  0  0  0  0  0  0  0  0  0  0  0
   43.9874  -45.3246    7.1520 C   0  0  0  0  0  0  0  0  0  0  0  0
   45.0531  -45.2732    6.3063 N   0  0  0  0  0  0  0  0  0  0  0  0
   45.2673  -45.8853    5.1494 N   0  0  0  0  0  0  0  0  0  0  0  0
  1  2  1  0  0  0  0
  2  3  1  0  0  0  0
  3  4  2  0  0  0  0
  4  5  1  0  0  0  0
  5  6  2  0  0  0  0
  6  7  1  0  0  0  0
  7  8  1  0  0  0  0
  8  9  2  0  0  0  0
  8 10  1  0  0  0  0
 10 11  1  0  0  0  0
 10 22  1  0  0  0  0
 11 12  1  0  0  0  0
 12 13  2  0  0  0  0
 12 14  1  0  0  0  0
 14 15  1  0  0  0  0
 15 16  2  0  0  0  0
 16 17  1  0  0  0  0
 17 18  2  0  0  0  0
 18 19  1  0  0  0  0
 19 20  2  0  0  0  0
 20 21  1  0  0  0  0
 20 15  1  0  0  0  0
 22 23  2  0  0  0  0
 23 24  1  0  0  0  0
 24 25  1  0  0  0  0
 24  7  2  0  0  0  0
 25 26  1  0  0  0  0
 25  4  1  0  0  0  0
 26  2  2  0  0  0  0
M  END
>  <CHROM.1>
145.98135594,132.07209086,-27.38527366,41.79942277,-44.93338870,7.17979534
0.09294648,0.02902144,-1.60356374

>  <Name>
design_10

>  <RI>
0

>  <Rbt.Current_Directory>
/home/ziqiaoxu/icml18-jtnn/VAEdesign

>  <Rbt.Executable>
rbdock ($Id: //depot/dev/client3/rdock/2013.1/src/exe/rbdock.cxx#4 $)

>  <Rbt.Library>
libRbt.so (2013.1, Build901 2013/11/27)

>  <Rbt.Parameter_File>
/export/apps/rDock/src/rDock_2013.1_src//data/scripts/dock.prm

>  <Rbt.Receptor>
/home/ziqiaoxu/icml18-jtnn/VAEdesign/targets/RdRp-SARS-CoV-2/pocket_docking.prm

>  <SCORE>
-16.3447

>  <SCORE.INTER>
-17.6807

>  <SCORE.INTER.CONST>
1

>  <SCORE.INTER.POLAR>
-0.00569163

>  <SCORE.INTER.REPUL>
0.00226461

>  <SCORE.INTER.ROT>
3

>  <SCORE.INTER.VDW>
-26.0727

>  <SCORE.INTER.norm>
-0.680029

>  <SCORE.INTRA>
1.33602

>  <SCORE.INTRA.DIHEDRAL>
2.69581

>  <SCORE.INTRA.DIHEDRAL.0>
3.69818

>  <SCORE.INTRA.POLAR>
0

>  <SCORE.INTRA.POLAR.0>
0

>  <SCORE.INTRA.REPUL>
0

>  <SCORE.INTRA.REPUL.0>
0

>  <SCORE.INTRA.VDW>
-0.011888

>  <SCORE.INTRA.VDW.0>
-0.000276673

>  <SCORE.INTRA.norm>
0.0513852

>  <SCORE.RESTR>
0

>  <SCORE.RESTR.CAVITY>
0

>  <SCORE.RESTR.norm>
0

>  <SCORE.SYSTEM>
0

>  <SCORE.SYSTEM.CONST>
0

>  <SCORE.SYSTEM.DIHEDRAL>
0

>  <SCORE.SYSTEM.norm>
0

>  <SCORE.heavy>
26

>  <SCORE.norm>
-0.628644

$$$$
design_10
 OpenBabel05252019093D

 26 29  0  0  0  0  0  0  0  0999 V2000
   47.1903  -46.6868    3.2050 C   0  0  0  0  0  0  0  0  0  0  0  0
   46.4068  -46.5379    1.9035 C   0  0  0  0  0  0  0  0  0  0  0  0
   46.9686  -46.9667    0.7236 C   0  0  0  0  0  0  0  0  0  0  0  0
   45.7316  -46.5838   -0.3788 S   0  0  0  0  0  0  0  0  0  0  0  0
   44.5852  -45.9108    0.6864 C   0  0  0  0  0  0  0  0  0  0  0  0
   43.2314  -45.3106    0.5151 C   0  0  0  0  0  0  0  0  0  0  0  0
   43.2229  -43.9383    0.2705 N   0  0  0  0  0  0  0  0  0  0  0  0
   42.9721  -42.9046    1.2009 C   0  0  0  0  0  0  0  0  0  0  0  0
   42.6969  -43.1784    2.4262 O   0  0  0  0  0  0  0  0  0  0  0  0
   43.0131  -41.4988    0.8776 C   0  0  0  0  0  0  0  0  0  0  0  0
   42.0952  -40.6561    1.5270 C   0  0  0  0  0  0  0  0  0  0  0  0
   42.1260  -39.3077    1.3176 C   0  0  0  0  0  0  0  0  0  0  0  0
   41.2715  -38.3672    1.9845 C   0  0  0  0  0  0  0  0  0  0  0  0
   41.2619  -37.0425    1.6599 C   0  0  0  0  0  0  0  0  0  0  0  0
   40.4114  -36.1357    2.2669 C   0  0  0  0  0  0  0  0  0  0  0  0
   39.5468  -36.5947    3.2325 C   0  0  0  0  0  0  0  0  0  0  0  0
   39.5339  -37.9354    3.5826 C   0  0  0  0  0  0  0  0  0  0  0  0
   40.3958  -38.7996    2.9545 C   0  0  0  0  0  0  0  0  0  0  0  0
   43.0520  -38.7797    0.4690 N   0  0  0  0  0  0  0  0  0  0  0  0
   43.9258  -39.5666   -0.1531 C   0  0  0  0  0  0  0  0  0  0  0  0
   44.8310  -38.9804   -1.0141 C   0  0  0  0  0  0  0  0  0  0  0  0
   45.7520  -39.7353   -1.7007 C   0  0  0  0  0  0  0  0  0  0  0  0
   45.7418  -41.1026   -1.4991 C   0  0  0  0  0  0  0  0  0  0  0  0
   44.8499  -41.6989   -0.6480 C   0  0  0  0  0  0  0  0  0  0  0  0
   43.9241  -40.9467    0.0404 C   0  0  0  0  0  0  0  0  0  0  0  0
   45.2331  -46.0203    1.8677 N   0  0  0  0  0  0  0  0  0  0  0  0
  1  2  1  0  0  0  0
  2  3  2  0  0  0  0
  3  4  1  0  0  0  0
  4  5  1  0  0  0  0
  5  6  1  0  0  0  0
  5 26  2  0  0  0  0
  6  7  1  0  0  0  0
  7  8  1  0  0  0  0
  8  9  2  0  0  0  0
  8 10  1  0  0  0  0
 10 11  2  0  0  0  0
 11 12  1  0  0  0  0
 12 13  1  0  0  0  0
 12 19  2  0  0  0  0
 13 14  2  0  0  0  0
 14 15  1  0  0  0  0
 15 16  2  0  0  0  0
 16 17  1  0  0  0  0
 17 18  2  0  0  0  0
 18 13  1  0  0  0  0
 19 20  1  0  0  0  0
 20 21  2  0  0  0  0
 21 22  1  0  0  0  0
 22 23  2  0  0  0  0
 23 24  1  0  0  0  0
 24 25  2  0  0  0  0
 25 10  1  0  0  0  0
 25 20  1  0  0  0  0
 26  2  1  0  0  0  0
M  END
>  <CHROM.1>
-88.98843760,-99.93166050,144.76236443,-174.36156469,43.59618346,-41.91122957
0.99198641,0.83101581,-0.77107456,2.70805330

>  <Name>
design_10

>  <RI>
0

>  <Rbt.Current_Directory>
/home/ziqiaoxu/icml18-jtnn/VAEdesign

>  <Rbt.Executable>
rbdock ($Id: //depot/dev/client3/rdock/2013.1/src/exe/rbdock.cxx#4 $)

>  <Rbt.Library>
libRbt.so (2013.1, Build901 2013/11/27)

>  <Rbt.Parameter_File>
/export/apps/rDock/src/rDock_2013.1_src//data/scripts/dock.prm

>  <Rbt.Receptor>
/home/ziqiaoxu/icml18-jtnn/VAEdesign/targets/RdRp-SARS-CoV-2/pocket_docking.prm

>  <SCORE>
-21.8096

>  <SCORE.INTER>
-19.9311

>  <SCORE.INTER.CONST>
1

>  <SCORE.INTER.POLAR>
-0.959166

>  <SCORE.INTER.REPUL>
0

>  <SCORE.INTER.ROT>
4

>  <SCORE.INTER.VDW>
-26.07

>  <SCORE.INTER.norm>
-0.766583

>  <SCORE.INTRA>
-1.87841

>  <SCORE.INTRA.DIHEDRAL>
-7.08858

>  <SCORE.INTRA.DIHEDRAL.0>
14.3283

>  <SCORE.INTRA.POLAR>
0

>  <SCORE.INTRA.POLAR.0>
0

>  <SCORE.INTRA.REPUL>
0

>  <SCORE.INTRA.REPUL.0>
0

>  <SCORE.INTRA.VDW>
1.66588

>  <SCORE.INTRA.VDW.0>
-2.03618

>  <SCORE.INTRA.norm>
-0.0722464

>  <SCORE.RESTR>
0

>  <SCORE.RESTR.CAVITY>
0

>  <SCORE.RESTR.norm>
0

>  <SCORE.SYSTEM>
0

>  <SCORE.SYSTEM.CONST>
0

>  <SCORE.SYSTEM.DIHEDRAL>
0

>  <SCORE.SYSTEM.norm>
0

>  <SCORE.heavy>
26

>  <SCORE.norm>
-0.838829

$$$$
design_2
 OpenBabel05252019093D

 26 28  0  0  0  0  0  0  0  0999 V2000
   40.2324  -37.3705    3.2918 C   0  0  0  0  0  0  0  0  0  0  0  0
   40.3733  -37.5424    1.7820 C   0  0  0  0  0  0  0  0  0  0  0  0
   40.8577  -38.8859    1.5484 N   0  0  0  0  0  0  0  0  0  0  0  0
   42.1506  -39.1319    1.0498 C   0  0  0  0  0  0  0  0  0  0  0  0
   42.8856  -38.1299    0.8091 O   0  0  0  0  0  0  0  0  0  0  0  0
   42.6131  -40.4927    0.8238 C   0  0  0  0  0  0  0  0  0  0  0  0
   41.8512  -41.5796    1.2789 C   0  0  0  0  0  0  0  0  0  0  0  0
   42.2315  -42.8881    1.0979 C   0  0  0  0  0  0  0  0  0  0  0  0
   43.4054  -43.2019    0.4462 C   0  0  0  0  0  0  0  0  0  0  0  0
   43.8130  -44.5557    0.2509 N   0  0  0  0  0  0  0  0  0  0  0  0
   43.2205  -45.5979    1.0546 C   0  0  0  0  0  0  0  0  0  0  0  0
   43.5397  -45.3945    2.5271 C   0  0  0  0  0  0  0  0  0  0  0  0
   44.5876  -44.8438    2.7760 O   0  0  0  0  0  0  0  0  0  0  0  0
   42.5899  -45.8648    3.4373 N   0  0  0  0  0  0  0  0  0  0  0  0
   42.7207  -45.7608    4.8462 C   0  0  0  0  0  0  0  0  0  0  0  0
   43.7504  -45.1160    5.4821 C   0  0  0  0  0  0  0  0  0  0  0  0
   43.8293  -45.0444    6.8647 C   0  0  0  0  0  0  0  0  0  0  0  0
   42.8660  -45.6248    7.6347 C   0  0  0  0  0  0  0  0  0  0  0  0
   41.8247  -46.2766    7.0142 C   0  0  0  0  0  0  0  0  0  0  0  0
   40.8242  -46.8800    7.7838 C   0  0  0  0  0  0  0  0  0  0  0  0
   39.7641  -47.5422    7.2249 C   0  0  0  0  0  0  0  0  0  0  0  0
   39.6537  -47.6331    5.8609 C   0  0  0  0  0  0  0  0  0  0  0  0
   40.6462  -47.0346    5.0927 C   0  0  0  0  0  0  0  0  0  0  0  0
   41.7152  -46.3671    5.6308 C   0  0  0  0  0  0  0  0  0  0  0  0
   44.1659  -42.1469   -0.0072 C   0  0  0  0  0  0  0  0  0  0  0  0
   43.7784  -40.8147    0.1772 C   0  0  0  0  0  0  0  0  0  0  0  0
  1  2  1  0  0  0  0
  2  3  1  0  0  0  0
  3  4  1  0  0  0  0
  4  5  2  0  0  0  0
  4  6  1  0  0  0  0
  6  7  2  0  0  0  0
  7  8  1  0  0  0  0
  8  9  2  0  0  0  0
  9 10  1  0  0  0  0
  9 25  1  0  0  0  0
 10 11  1  0  0  0  0
 11 12  1  0  0  0  0
 12 13  2  0  0  0  0
 12 14  1  0  0  0  0
 14 15  1  0  0  0  0
 15 16  2  0  0  0  0
 16 17  1  0  0  0  0
 17 18  2  0  0  0  0
 18 19  1  0  0  0  0
 19 20  2  0  0  0  0
 20 21  1  0  0  0  0
 21 22  2  0  0  0  0
 22 23  1  0  0  0  0
 23 24  2  0  0  0  0
 24 15  1  0  0  0  0
 24 19  1  0  0  0  0
 25 26  2  0  0  0  0
 26  6  1  0  0  0  0
M  END
>  <CHROM.1>
-111.63994955,-9.18389815,-17.97098487,-62.58035252,-29.77814864,4.20672485
42.30742515,-43.43712065,3.23518387,1.49197660,0.95927342,-0.55172025

>  <Name>
design_2

>  <RI>
0

>  <Rbt.Current_Directory>
/home/ziqiaoxu/icml18-jtnn/VAEdesign

>  <Rbt.Executable>
rbdock ($Id: //depot/dev/client3/rdock/2013.1/src/exe/rbdock.cxx#4 $)

>  <Rbt.Library>
libRbt.so (2013.1, Build901 2013/11/27)

>  <Rbt.Parameter_File>
/export/apps/rDock/src/rDock_2013.1_src//data/scripts/dock.prm

>  <Rbt.Receptor>
/home/ziqiaoxu/icml18-jtnn/VAEdesign/targets/RdRp-SARS-CoV-2/pocket_docking.prm

>  <SCORE>
-23.7713

>  <SCORE.INTER>
-22.2465

>  <SCORE.INTER.CONST>
1

>  <SCORE.INTER.POLAR>
-2.22944

>  <SCORE.INTER.REPUL>
0

>  <SCORE.INTER.ROT>
6

>  <SCORE.INTER.VDW>
-26.0664

>  <SCORE.INTER.norm>
-0.855636

>  <SCORE.INTRA>
-1.52481

>  <SCORE.INTRA.DIHEDRAL>
1.61367

>  <SCORE.INTRA.DIHEDRAL.0>
4.93601

>  <SCORE.INTRA.POLAR>
0

>  <SCORE.INTRA.POLAR.0>
0

>  <SCORE.INTRA.REPUL>
0

>  <SCORE.INTRA.REPUL.0>
0

>  <SCORE.INTRA.VDW>
-2.33165

>  <SCORE.INTRA.VDW.0>
2.21989

>  <SCORE.INTRA.norm>
-0.0586466

>  <SCORE.RESTR>
0

>  <SCORE.RESTR.CAVITY>
0

>  <SCORE.RESTR.norm>
0

>  <SCORE.SYSTEM>
0

>  <SCORE.SYSTEM.CONST>
0

>  <SCORE.SYSTEM.DIHEDRAL>
0

>  <SCORE.SYSTEM.norm>
0

>  <SCORE.heavy>
26

>  <SCORE.norm>
-0.914282

$$$$
design_1
 OpenBabel05252019093D

 26 29  0  0  0  0  0  0  0  0999 V2000
   37.2020  -46.5859    7.9709 O   0  0  0  0  0  0  0  0  0  0  0  0
   37.2115  -46.3175    6.7424 C   0  0  0  0  0  0  0  0  0  0  0  0
   36.1731  -45.4854    6.0784 C   0  0  0  0  0  0  0  0  0  0  0  0
   36.9207  -44.9461    4.8685 C   0  0  0  0  0  0  0  0  0  0  0  0
   37.9894  -45.9639    4.5329 C   0  0  0  0  0  0  0  0  0  0  0  0
   38.1606  -46.7199    5.7475 N   0  0  0  0  0  0  0  0  0  0  0  0
   39.1330  -47.7683    6.0201 C   0  0  0  0  0  0  0  0  0  0  0  0
   40.4495  -47.0631    6.1667 C   0  0  0  0  0  0  0  0  0  0  0  0
   41.1125  -46.6445    5.0339 C   0  0  0  0  0  0  0  0  0  0  0  0
   42.3350  -45.9931    5.1952 C   0  0  0  0  0  0  0  0  0  0  0  0
   42.8924  -45.7571    6.4138 C   0  0  0  0  0  0  0  0  0  0  0  0
   44.1898  -45.0607    6.5876 C   0  0  0  0  0  0  0  0  0  0  0  0
   45.0824  -45.5497    5.5288 N   0  0  0  0  0  0  0  0  0  0  0  0
   45.1480  -44.9209    4.2709 C   0  0  0  0  0  0  0  0  0  0  0  0
   44.4326  -43.9255    4.0451 O   0  0  0  0  0  0  0  0  0  0  0  0
   46.0538  -45.4350    3.2321 C   0  0  0  0  0  0  0  0  0  0  0  0
   45.3621  -45.7554    1.9358 C   0  0  0  0  0  0  0  0  0  0  0  0
   44.0041  -45.6159    1.7930 C   0  0  0  0  0  0  0  0  0  0  0  0
   43.4233  -45.9243    0.5816 C   0  0  0  0  0  0  0  0  0  0  0  0
   44.1561  -46.3697   -0.4979 C   0  0  0  0  0  0  0  0  0  0  0  0
   45.5128  -46.5009   -0.3296 C   0  0  0  0  0  0  0  0  0  0  0  0
   46.0979  -46.1993    0.8622 C   0  0  0  0  0  0  0  0  0  0  0  0
   47.4367  -44.8978    3.1018 C   0  0  0  0  0  0  0  0  0  0  0  0
   47.1891  -46.2767    3.6810 C   0  0  0  0  0  0  0  0  0  0  0  0
   42.2321  -46.1744    7.5498 C   0  0  0  0  0  0  0  0  0  0  0  0
   41.0022  -46.8313    7.4134 C   0  0  0  0  0  0  0  0  0  0  0  0
  1  2  2  0  0  0  0
  2  3  1  0  0  0  0
  3  4  1  0  0  0  0
  4  5  1  0  0  0  0
  5  6  1  0  0  0  0
  6  7  1  0  0  0  0
  6  2  1  0  0  0  0
  7  8  1  0  0  0  0
  8  9  2  0  0  0  0
  9 10  1  0  0  0  0
 10 11  2  0  0  0  0
 11 12  1  0  0  0  0
 11 25  1  0  0  0  0
 12 13  1  0  0  0  0
 13 14  1  0  0  0  0
 14 15  2  0  0  0  0
 14 16  1  0  0  0  0
 16 17  1  0  0  0  0
 16 23  1  0  0  0  0
 17 18  2  0  0  0  0
 18 19  1  0  0  0  0
 19 20  2  0  0  0  0
 20 21  1  0  0  0  0
 21 22  2  0  0  0  0
 22 17  1  0  0  0  0
 23 24  1  0  0  0  0
 24 16  1  0  0  0  0
 25 26  2  0  0  0  0
 26  8  1  0  0  0  0
M  END
>  <CHROM.1>
-107.19985179,-77.66205325,-40.17813200,89.54241275,124.82390358,-2.33890992
42.29175267,-45.93746504,4.44792435,-2.64961202,-0.09573188,-1.60249433

>  <Name>
design_1

>  <RI>
0

>  <Rbt.Current_Directory>
/home/ziqiaoxu/icml18-jtnn/VAEdesign

>  <Rbt.Executable>
rbdock ($Id: //depot/dev/client3/rdock/2013.1/src/exe/rbdock.cxx#4 $)

>  <Rbt.Library>
libRbt.so (2013.1, Build901 2013/11/27)

>  <Rbt.Parameter_File>
/export/apps/rDock/src/rDock_2013.1_src//data/scripts/dock.prm

>  <Rbt.Receptor>
/home/ziqiaoxu/icml18-jtnn/VAEdesign/targets/RdRp-SARS-CoV-2/pocket_docking.prm

>  <SCORE>
-16.1177

>  <SCORE.INTER>
-17.3413

>  <SCORE.INTER.CONST>
1

>  <SCORE.INTER.POLAR>
-0.894427

>  <SCORE.INTER.REPUL>
0.0731449

>  <SCORE.INTER.ROT>
6

>  <SCORE.INTER.VDW>
-26.066

>  <SCORE.INTER.norm>
-0.666973

>  <SCORE.INTRA>
1.22361

>  <SCORE.INTRA.DIHEDRAL>
0.765241

>  <SCORE.INTRA.DIHEDRAL.0>
7.34802

>  <SCORE.INTRA.POLAR>
0

>  <SCORE.INTRA.POLAR.0>
0

>  <SCORE.INTRA.REPUL>
0

>  <SCORE.INTRA.REPUL.0>
0

>  <SCORE.INTRA.VDW>
0.84099

>  <SCORE.INTRA.VDW.0>
-1.4689

>  <SCORE.INTRA.norm>
0.047062

>  <SCORE.RESTR>
0

>  <SCORE.RESTR.CAVITY>
0

>  <SCORE.RESTR.norm>
0

>  <SCORE.SYSTEM>
0

>  <SCORE.SYSTEM.CONST>
0

>  <SCORE.SYSTEM.DIHEDRAL>
0

>  <SCORE.SYSTEM.norm>
0

>  <SCORE.heavy>
26

>  <SCORE.norm>
-0.619911

$$$$
design_17
 OpenBabel05252019093D

 25 28  0  0  0  0  0  0  0  0999 V2000
   46.9053  -46.9607    2.8642 C   0  0  0  0  0  0  0  0  0  0  0  0
   46.6934  -46.0951    4.0501 C   0  0  0  0  0  0  0  0  0  0  0  0
   47.5248  -45.1533    4.5236 N   0  0  0  0  0  0  0  0  0  0  0  0
   46.9923  -44.5799    5.6123 N   0  0  0  0  0  0  0  0  0  0  0  0
   45.8026  -45.1630    5.8393 C   0  0  0  0  0  0  0  0  0  0  0  0
   44.8567  -44.8609    6.9315 C   0  0  0  0  0  0  0  0  0  0  0  0
   45.0890  -43.7903    7.7666 C   0  0  0  0  0  0  0  0  0  0  0  0
   44.2102  -43.5012    8.7832 C   0  0  0  0  0  0  0  0  0  0  0  0
   43.0615  -44.2699    9.0086 C   0  0  0  0  0  0  0  0  0  0  0  0
   42.8323  -45.3342    8.1776 C   0  0  0  0  0  0  0  0  0  0  0  0
   41.7132  -46.1590    8.3394 N   0  0  0  0  0  0  0  0  0  0  0  0
   40.6823  -46.0417    9.2479 C   0  0  0  0  0  0  0  0  0  0  0  0
   40.5935  -45.1380   10.1039 O   0  0  0  0  0  0  0  0  0  0  0  0
   39.5365  -47.0278    9.2854 C   0  0  0  0  0  0  0  0  0  0  0  0
   39.1305  -47.4361    7.9272 C   0  0  0  0  0  0  0  0  0  0  0  0
   39.5610  -48.5253    7.2081 C   0  0  0  0  0  0  0  0  0  0  0  0
   38.9565  -48.5596    6.0061 N   0  0  0  0  0  0  0  0  0  0  0  0
   38.1179  -47.4844    5.9271 C   0  0  0  0  0  0  0  0  0  0  0  0
   37.2780  -47.0616    4.9194 C   0  0  0  0  0  0  0  0  0  0  0  0
   36.5195  -45.9231    5.0791 C   0  0  0  0  0  0  0  0  0  0  0  0
   36.6115  -45.2153    6.2559 C   0  0  0  0  0  0  0  0  0  0  0  0
   37.4562  -45.6623    7.2383 C   0  0  0  0  0  0  0  0  0  0  0  0
   38.2284  -46.7957    7.1120 C   0  0  0  0  0  0  0  0  0  0  0  0
   43.7556  -45.6051    7.1408 C   0  0  0  0  0  0  0  0  0  0  0  0
   45.6392  -46.0791    4.8814 N   0  0  0  0  0  0  0  0  0  0  0  0
  1  2  1  0  0  0  0
  2  3  2  0  0  0  0
  3  4  1  0  0  0  0
  4  5  1  0  0  0  0
  5  6  1  0  0  0  0
  5 25  2  0  0  0  0
  6  7  2  0  0  0  0
  7  8  1  0  0  0  0
  8  9  2  0  0  0  0
  9 10  1  0  0  0  0
 10 11  1  0  0  0  0
 10 24  2  0  0  0  0
 11 12  1  0  0  0  0
 12 13  2  0  0  0  0
 12 14  1  0  0  0  0
 14 15  1  0  0  0  0
 15 16  2  0  0  0  0
 16 17  1  0  0  0  0
 17 18  1  0  0  0  0
 18 19  2  0  0  0  0
 19 20  1  0  0  0  0
 20 21  2  0  0  0  0
 21 22  1  0  0  0  0
 22 23  2  0  0  0  0
 23 15  1  0  0  0  0
 23 18  1  0  0  0  0
 24  6  1  0  0  0  0
 25  2  1  0  0  0  0
M  END
>  <CHROM.1>
7.19865545,2.83208537,-38.65688988,93.22767652,41.95896392,-45.94343188,6.80204303
0.09125922,-0.22842182,-1.97742764

>  <Name>
design_17

>  <RI>
0

>  <Rbt.Current_Directory>
/home/ziqiaoxu/icml18-jtnn/VAEdesign

>  <Rbt.Executable>
rbdock ($Id: //depot/dev/client3/rdock/2013.1/src/exe/rbdock.cxx#4 $)

>  <Rbt.Library>
libRbt.so (2013.1, Build901 2013/11/27)

>  <Rbt.Parameter_File>
/export/apps/rDock/src/rDock_2013.1_src//data/scripts/dock.prm

>  <Rbt.Receptor>
/home/ziqiaoxu/icml18-jtnn/VAEdesign/targets/RdRp-SARS-CoV-2/pocket_docking.prm

>  <SCORE>
-22.2251

>  <SCORE.INTER>
-21.6231

>  <SCORE.INTER.CONST>
1

>  <SCORE.INTER.POLAR>
-1.51741

>  <SCORE.INTER.REPUL>
0.0400812

>  <SCORE.INTER.ROT>
4

>  <SCORE.INTER.VDW>
-26.0643

>  <SCORE.INTER.norm>
-0.864923

>  <SCORE.INTRA>
-0.602003

>  <SCORE.INTRA.DIHEDRAL>
0.6104

>  <SCORE.INTRA.DIHEDRAL.0>
2.07853

>  <SCORE.INTRA.POLAR>
0

>  <SCORE.INTRA.POLAR.0>
0

>  <SCORE.INTRA.REPUL>
0

>  <SCORE.INTRA.REPUL.0>
0

>  <SCORE.INTRA.VDW>
-0.907203

>  <SCORE.INTRA.VDW.0>
-0.701847

>  <SCORE.INTRA.norm>
-0.0240801

>  <SCORE.RESTR>
0

>  <SCORE.RESTR.CAVITY>
0

>  <SCORE.RESTR.norm>
0

>  <SCORE.SYSTEM>
0

>  <SCORE.SYSTEM.CONST>
0

>  <SCORE.SYSTEM.DIHEDRAL>
0

>  <SCORE.SYSTEM.norm>
0

>  <SCORE.heavy>
25

>  <SCORE.norm>
-0.889003

$$$$
design_15
 OpenBabel05252019093D

 24 27  0  0  0  0  0  0  0  0999 V2000
   37.1960  -45.2433    6.3075 C   0  0  0  0  0  0  0  0  0  0  0  0
   37.1014  -43.7277    6.2772 C   0  0  0  0  0  0  0  0  0  0  0  0
   37.9881  -42.8307    6.5976 N   0  0  0  0  0  0  0  0  0  0  0  0
   37.7055  -41.5710    6.5890 C   0  0  0  0  0  0  0  0  0  0  0  0
   38.7365  -40.5903    7.0056 C   0  0  0  0  0  0  0  0  0  0  0  0
   39.4547  -40.6887    8.1795 C   0  0  0  0  0  0  0  0  0  0  0  0
   40.2484  -39.6660    8.6313 C   0  0  0  0  0  0  0  0  0  0  0  0
   40.3616  -38.4841    7.9227 C   0  0  0  0  0  0  0  0  0  0  0  0
   39.6566  -38.3232    6.7380 C   0  0  0  0  0  0  0  0  0  0  0  0
   39.6794  -37.0685    6.0516 C   0  0  0  0  0  0  0  0  0  0  0  0
   39.7598  -37.0718    4.6519 N   0  0  0  0  0  0  0  0  0  0  0  0
   39.8323  -37.0728    3.3699 C   0  0  0  0  0  0  0  0  0  0  0  0
   39.3431  -36.2615    2.4967 O   0  0  0  0  0  0  0  0  0  0  0  0
   40.6269  -38.1448    2.6948 C   0  0  0  0  0  0  0  0  0  0  0  0
   41.3443  -39.1311    3.4191 C   0  0  0  0  0  0  0  0  0  0  0  0
   41.8277  -40.1678    2.7216 C   0  0  0  0  0  0  0  0  0  0  0  0
   41.6120  -40.1911    1.3713 C   0  0  0  0  0  0  0  0  0  0  0  0
   40.7136  -38.7485    1.1352 S   0  0  0  0  0  0  0  0  0  0  0  0
   42.2535  -41.3691    0.7079 C   0  0  0  0  0  0  0  0  0  0  0  0
   42.5786  -42.3111    1.8397 C   0  0  0  0  0  0  0  0  0  0  0  0
   42.5313  -41.4870    3.0687 C   0  0  0  0  0  0  0  0  0  0  0  0
   38.8540  -39.3939    6.2958 C   0  0  0  0  0  0  0  0  0  0  0  0
   36.4442  -41.2253    6.2278 C   0  0  0  0  0  0  0  0  0  0  0  0
   35.7293  -42.7507    5.9131 S   0  0  0  0  0  0  0  0  0  0  0  0
  1  2  1  0  0  0  0
  2  3  2  0  0  0  0
  3  4  1  0  0  0  0
  4  5  1  0  0  0  0
  4 23  2  0  0  0  0
  5  6  2  0  0  0  0
  6  7  1  0  0  0  0
  7  8  2  0  0  0  0
  8  9  1  0  0  0  0
  9 10  1  0  0  0  0
  9 22  2  0  0  0  0
 10 11  1  0  0  0  0
 11 12  1  0  0  0  0
 12 13  2  0  0  0  0
 12 14  1  0  0  0  0
 14 15  2  0  0  0  0
 15 16  1  0  0  0  0
 16 17  2  0  0  0  0
 17 18  1  0  0  0  0
 17 19  1  0  0  0  0
 18 14  1  0  0  0  0
 19 20  1  0  0  0  0
 20 21  1  0  0  0  0
 21 16  1  0  0  0  0
 22  5  1  0  0  0  0
 23 24  1  0  0  0  0
 24  2  1  0  0  0  0
M  END
>  <CHROM.1>
-50.49886149,140.09032702,149.50183674,-2.40165973,39.49713836,-40.20333677
4.67675735,-2.99276081,0.97142853,0.46266271

>  <Name>
design_15

>  <RI>
0

>  <Rbt.Current_Directory>
/home/ziqiaoxu/icml18-jtnn/VAEdesign

>  <Rbt.Executable>
rbdock ($Id: //depot/dev/client3/rdock/2013.1/src/exe/rbdock.cxx#4 $)

>  <Rbt.Library>
libRbt.so (2013.1, Build901 2013/11/27)

>  <Rbt.Parameter_File>
/export/apps/rDock/src/rDock_2013.1_src//data/scripts/dock.prm

>  <Rbt.Receptor>
/home/ziqiaoxu/icml18-jtnn/VAEdesign/targets/RdRp-SARS-CoV-2/pocket_docking.prm

>  <SCORE>
-20.4957

>  <SCORE.INTER>
-21.8333

>  <SCORE.INTER.CONST>
1

>  <SCORE.INTER.POLAR>
-1.52112

>  <SCORE.INTER.REPUL>
0

>  <SCORE.INTER.ROT>
4

>  <SCORE.INTER.VDW>
-26.0615

>  <SCORE.INTER.norm>
-0.909721

>  <SCORE.INTRA>
1.33756

>  <SCORE.INTRA.DIHEDRAL>
4.10339

>  <SCORE.INTRA.DIHEDRAL.0>
5.29688

>  <SCORE.INTRA.POLAR>
0

>  <SCORE.INTRA.POLAR.0>
0

>  <SCORE.INTRA.REPUL>
0

>  <SCORE.INTRA.REPUL.0>
0

>  <SCORE.INTRA.VDW>
-0.714136

>  <SCORE.INTRA.VDW.0>
-1.21027

>  <SCORE.INTRA.norm>
0.0557316

>  <SCORE.RESTR>
0

>  <SCORE.RESTR.CAVITY>
0

>  <SCORE.RESTR.norm>
0

>  <SCORE.SYSTEM>
0

>  <SCORE.SYSTEM.CONST>
0

>  <SCORE.SYSTEM.DIHEDRAL>
0

>  <SCORE.SYSTEM.norm>
0

>  <SCORE.heavy>
24

>  <SCORE.norm>
-0.853989

$$$$
design_13
 OpenBabel05252019093D

 26 28  0  0  0  0  0  0  0  0999 V2000
   39.1944  -48.5002    6.9678 C   0  0  0  0  0  0  0  0  0  0  0  0
   39.5222  -47.4899    8.0073 C   0  0  0  0  0  0  0  0  0  0  0  0
   38.8347  -47.2681    9.1472 N   0  0  0  0  0  0  0  0  0  0  0  0
   39.3723  -46.3137    9.8595 N   0  0  0  0  0  0  0  0  0  0  0  0
   40.4567  -45.8564    9.2077 C   0  0  0  0  0  0  0  0  0  0  0  0
   41.4094  -44.7830    9.5907 C   0  0  0  0  0  0  0  0  0  0  0  0
   40.5658  -46.5958    8.0260 C   0  0  0  0  0  0  0  0  0  0  0  0
   41.6172  -46.4262    7.0005 C   0  0  0  0  0  0  0  0  0  0  0  0
   41.0231  -45.7041    5.8081 C   0  0  0  0  0  0  0  0  0  0  0  0
   41.3947  -46.3559    4.5105 C   0  0  0  0  0  0  0  0  0  0  0  0
   42.1555  -45.4305    3.7040 N   0  0  0  0  0  0  0  0  0  0  0  0
   41.4959  -44.5451    2.8509 C   0  0  0  0  0  0  0  0  0  0  0  0
   40.2420  -44.5555    2.7908 O   0  0  0  0  0  0  0  0  0  0  0  0
   42.2879  -43.6095    2.0343 C   0  0  0  0  0  0  0  0  0  0  0  0
   43.6583  -43.7386    1.9390 C   0  0  0  0  0  0  0  0  0  0  0  0
   44.3945  -42.8373    1.1666 C   0  0  0  0  0  0  0  0  0  0  0  0
   43.8017  -41.8009    0.4794 C   0  0  0  0  0  0  0  0  0  0  0  0
   44.5317  -40.8669   -0.3153 N   0  0  0  0  0  0  0  0  0  0  0  0
   45.6989  -41.3364   -1.0179 C   0  0  0  0  0  0  0  0  0  0  0  0
   46.5071  -40.2585   -1.6641 C   0  0  0  0  0  0  0  0  0  0  0  0
   45.5588  -39.3115   -2.3694 C   0  0  0  0  0  0  0  0  0  0  0  0
   44.8194  -38.5465   -1.3079 C   0  0  0  0  0  0  0  0  0  0  0  0
   44.1401  -39.5043   -0.4264 C   0  0  0  0  0  0  0  0  0  0  0  0
   43.1455  -39.1639    0.3003 O   0  0  0  0  0  0  0  0  0  0  0  0
   42.4318  -41.7164    0.6077 C   0  0  0  0  0  0  0  0  0  0  0  0
   41.6941  -42.5849    1.3558 C   0  0  0  0  0  0  0  0  0  0  0  0
  1  2  1  0  0  0  0
  2  3  2  0  0  0  0
  3  4  1  0  0  0  0
  4  5  1  0  0  0  0
  5  6  1  0  0  0  0
  5  7  2  0  0  0  0
  7  8  1  0  0  0  0
  7  2  1  0  0  0  0
  8  9  1  0  0  0  0
  9 10  1  0  0  0  0
 10 11  1  0  0  0  0
 11 12  1  0  0  0  0
 12 13  2  0  0  0  0
 12 14  1  0  0  0  0
 14 15  2  0  0  0  0
 15 16  1  0  0  0  0
 16 17  2  0  0  0  0
 17 18  1  0  0  0  0
 17 25  1  0  0  0  0
 18 19  1  0  0  0  0
 19 20  1  0  0  0  0
 20 21  1  0  0  0  0
 21 22  1  0  0  0  0
 22 23  1  0  0  0  0
 23 24  2  0  0  0  0
 23 18  1  0  0  0  0
 25 26  2  0  0  0  0
 26 14  1  0  0  0  0
M  END
>  <CHROM.1>
75.16175699,-133.68027914,-118.16315141,-87.81099711,10.44541071,33.96543793
42.29479438,-43.65495548,3.41085374,2.65546720,1.11740217,1.15229162

>  <Name>
design_13

>  <RI>
0

>  <Rbt.Current_Directory>
/home/ziqiaoxu/icml18-jtnn/VAEdesign

>  <Rbt.Executable>
rbdock ($Id: //depot/dev/client3/rdock/2013.1/src/exe/rbdock.cxx#4 $)

>  <Rbt.Library>
libRbt.so (2013.1, Build901 2013/11/27)

>  <Rbt.Parameter_File>
/export/apps/rDock/src/rDock_2013.1_src//data/scripts/dock.prm

>  <Rbt.Receptor>
/home/ziqiaoxu/icml18-jtnn/VAEdesign/targets/RdRp-SARS-CoV-2/pocket_docking.prm

>  <SCORE>
-15.2746

>  <SCORE.INTER>
-17.7684

>  <SCORE.INTER.CONST>
1

>  <SCORE.INTER.POLAR>
-1.0198

>  <SCORE.INTER.REPUL>
0.0719941

>  <SCORE.INTER.ROT>
6

>  <SCORE.INTER.VDW>
-26.0611

>  <SCORE.INTER.norm>
-0.683402

>  <SCORE.INTRA>
2.49382

>  <SCORE.INTRA.DIHEDRAL>
3.53566

>  <SCORE.INTRA.DIHEDRAL.0>
13.6566

>  <SCORE.INTRA.POLAR>
0

>  <SCORE.INTRA.POLAR.0>
0

>  <SCORE.INTRA.REPUL>
0

>  <SCORE.INTRA.REPUL.0>
0

>  <SCORE.INTRA.VDW>
0.725991

>  <SCORE.INTRA.VDW.0>
-1.12278

>  <SCORE.INTRA.norm>
0.0959162

>  <SCORE.RESTR>
0

>  <SCORE.RESTR.CAVITY>
0

>  <SCORE.RESTR.norm>
0

>  <SCORE.SYSTEM>
0

>  <SCORE.SYSTEM.CONST>
0

>  <SCORE.SYSTEM.DIHEDRAL>
0

>  <SCORE.SYSTEM.norm>
0

>  <SCORE.heavy>
26

>  <SCORE.norm>
-0.587485

$$$$
design_0
 OpenBabel05252019093D

 24 26  0  0  0  0  0  0  0  0999 V2000
   40.4100  -45.6400   10.6978 N   0  0  0  0  0  0  0  0  0  0  0  0
   41.0737  -45.4107    9.4685 C   0  0  0  0  0  0  0  0  0  0  0  0
   41.9615  -44.5281    9.3902 O   0  0  0  0  0  0  0  0  0  0  0  0
   40.7311  -46.1955    8.2901 C   0  0  0  0  0  0  0  0  0  0  0  0
   39.7875  -47.2065    8.3898 C   0  0  0  0  0  0  0  0  0  0  0  0
   39.4364  -47.9679    7.3079 C   0  0  0  0  0  0  0  0  0  0  0  0
   40.0570  -47.7063    6.0710 C   0  0  0  0  0  0  0  0  0  0  0  0
   40.9907  -46.7160    5.9410 C   0  0  0  0  0  0  0  0  0  0  0  0
   41.6329  -46.3972    4.7246 N   0  0  0  0  0  0  0  0  0  0  0  0
   42.4696  -45.3170    4.4145 C   0  0  0  0  0  0  0  0  0  0  0  0
   42.7612  -44.4541    5.2555 O   0  0  0  0  0  0  0  0  0  0  0  0
   43.0221  -45.1966    3.0527 C   0  0  0  0  0  0  0  0  0  0  0  0
   41.9460  -44.9799    2.0519 C   0  0  0  0  0  0  0  0  0  0  0  0
   41.2985  -43.6216    2.0967 C   0  0  0  0  0  0  0  0  0  0  0  0
   42.1769  -42.6357    1.3745 C   0  0  0  0  0  0  0  0  0  0  0  0
   43.2819  -42.8113    0.6786 N   0  0  0  0  0  0  0  0  0  0  0  0
   43.8799  -41.7905    0.1337 C   0  0  0  0  0  0  0  0  0  0  0  0
   45.0649  -41.8341   -0.6344 C   0  0  0  0  0  0  0  0  0  0  0  0
   45.5681  -40.6807   -1.1373 C   0  0  0  0  0  0  0  0  0  0  0  0
   45.0319  -39.4234   -0.9764 C   0  0  0  0  0  0  0  0  0  0  0  0
   43.8620  -39.3785   -0.2184 C   0  0  0  0  0  0  0  0  0  0  0  0
   43.3171  -40.5547    0.3152 C   0  0  0  0  0  0  0  0  0  0  0  0
   41.9449  -40.9500    1.2720 S   0  0  0  0  0  0  0  0  0  0  0  0
   41.3242  -45.9554    7.0785 C   0  0  0  0  0  0  0  0  0  0  0  0
  1  2  1  0  0  0  0
  2  3  2  0  0  0  0
  2  4  1  0  0  0  0
  4  5  2  0  0  0  0
  5  6  1  0  0  0  0
  6  7  2  0  0  0  0
  7  8  1  0  0  0  0
  8  9  1  0  0  0  0
  8 24  2  0  0  0  0
  9 10  1  0  0  0  0
 10 11  2  0  0  0  0
 10 12  1  0  0  0  0
 12 13  1  0  0  0  0
 13 14  1  0  0  0  0
 14 15  1  0  0  0  0
 15 16  2  0  0  0  0
 16 17  1  0  0  0  0
 17 18  2  0  0  0  0
 18 19  1  0  0  0  0
 19 20  2  0  0  0  0
 20 21  1  0  0  0  0
 21 22  2  0  0  0  0
 22 23  1  0  0  0  0
 22 17  1  0  0  0  0
 23 15  1  0  0  0  0
 24  4  1  0  0  0  0
M  END
>  <CHROM.1>
-2.54295657,171.09724563,64.52914504,71.45535333,80.47907972,5.83759517,42.18061634
-43.92053390,3.90257083,-2.55282223,-1.19694805,-1.94203528

>  <Name>
design_0

>  <RI>
0

>  <Rbt.Current_Directory>
/home/ziqiaoxu/icml18-jtnn/VAEdesign

>  <Rbt.Executable>
rbdock ($Id: //depot/dev/client3/rdock/2013.1/src/exe/rbdock.cxx#4 $)

>  <Rbt.Library>
libRbt.so (2013.1, Build901 2013/11/27)

>  <Rbt.Parameter_File>
/export/apps/rDock/src/rDock_2013.1_src//data/scripts/dock.prm

>  <Rbt.Receptor>
/home/ziqiaoxu/icml18-jtnn/VAEdesign/targets/RdRp-SARS-CoV-2/pocket_docking.prm

>  <SCORE>
-22.8165

>  <SCORE.INTER>
-21.9589

>  <SCORE.INTER.CONST>
1

>  <SCORE.INTER.POLAR>
-2.18573

>  <SCORE.INTER.REPUL>
0.0259065

>  <SCORE.INTER.ROT>
6

>  <SCORE.INTER.VDW>
-26.057

>  <SCORE.INTER.norm>
-0.914955

>  <SCORE.INTRA>
-0.857594

>  <SCORE.INTRA.DIHEDRAL>
1.50916

>  <SCORE.INTRA.DIHEDRAL.0>
3.12669

>  <SCORE.INTRA.POLAR>
0

>  <SCORE.INTRA.POLAR.0>
0

>  <SCORE.INTRA.REPUL>
0

>  <SCORE.INTRA.REPUL.0>
0

>  <SCORE.INTRA.VDW>
-1.61217

>  <SCORE.INTRA.VDW.0>
0.895411

>  <SCORE.INTRA.norm>
-0.0357331

>  <SCORE.RESTR>
0

>  <SCORE.RESTR.CAVITY>
0

>  <SCORE.RESTR.norm>
0

>  <SCORE.SYSTEM>
0

>  <SCORE.SYSTEM.CONST>
0

>  <SCORE.SYSTEM.DIHEDRAL>
0

>  <SCORE.SYSTEM.norm>
0

>  <SCORE.heavy>
24

>  <SCORE.norm>
-0.950688

$$$$
design_6
 OpenBabel05252019093D

 24 25  0  0  0  0  0  0  0  0999 V2000
   40.2865  -46.0450   11.2143 N   0  0  0  0  0  0  0  0  0  0  0  0
   40.6419  -45.2334    9.7119 S   0  0  0  0  0  0  0  0  0  0  0  0
   39.7976  -43.9927    9.6073 O   0  0  0  0  0  0  0  0  0  0  0  0
   42.0969  -44.8637    9.6571 O   0  0  0  0  0  0  0  0  0  0  0  0
   40.2446  -46.3512    8.4070 C   0  0  0  0  0  0  0  0  0  0  0  0
   39.5281  -47.5066    8.6296 C   0  0  0  0  0  0  0  0  0  0  0  0
   39.2355  -48.3561    7.5911 C   0  0  0  0  0  0  0  0  0  0  0  0
   39.6680  -48.0495    6.2873 C   0  0  0  0  0  0  0  0  0  0  0  0
   40.3799  -46.9113    6.0350 C   0  0  0  0  0  0  0  0  0  0  0  0
   40.8471  -46.5117    4.7671 N   0  0  0  0  0  0  0  0  0  0  0  0
   41.4797  -45.3059    4.4111 C   0  0  0  0  0  0  0  0  0  0  0  0
   41.7219  -44.3955    5.2175 O   0  0  0  0  0  0  0  0  0  0  0  0
   41.8712  -45.0982    3.0591 N   0  0  0  0  0  0  0  0  0  0  0  0
   42.5391  -43.8717    2.6293 C   0  0  0  0  0  0  0  0  0  0  0  0
   41.7230  -43.0152    1.7453 C   0  0  0  0  0  0  0  0  0  0  0  0
   42.3442  -41.8016    1.1483 C   0  0  0  0  0  0  0  0  0  0  0  0
   43.7520  -42.0184    0.1169 S   0  0  0  0  0  0  0  0  0  0  0  0
   44.5130  -40.5618   -0.5433 C   0  0  0  0  0  0  0  0  0  0  0  0
   44.1861  -39.2670   -0.2137 C   0  0  0  0  0  0  0  0  0  0  0  0
   44.8184  -38.1563   -0.7387 C   0  0  0  0  0  0  0  0  0  0  0  0
   45.8430  -38.2899   -1.6506 C   0  0  0  0  0  0  0  0  0  0  0  0
   46.1863  -39.5784   -1.9953 C   0  0  0  0  0  0  0  0  0  0  0  0
   45.5604  -40.6824   -1.4755 C   0  0  0  0  0  0  0  0  0  0  0  0
   40.6433  -46.0950    7.1250 C   0  0  0  0  0  0  0  0  0  0  0  0
  1  2  1  0  0  0  0
  2  3  2  0  0  0  0
  2  4  2  0  0  0  0
  2  5  1  0  0  0  0
  5  6  2  0  0  0  0
  6  7  1  0  0  0  0
  7  8  2  0  0  0  0
  8  9  1  0  0  0  0
  9 10  1  0  0  0  0
  9 24  2  0  0  0  0
 10 11  1  0  0  0  0
 11 12  2  0  0  0  0
 11 13  1  0  0  0  0
 13 14  1  0  0  0  0
 14 15  1  0  0  0  0
 15 16  1  0  0  0  0
 16 17  1  0  0  0  0
 17 18  1  0  0  0  0
 18 19  2  0  0  0  0
 19 20  1  0  0  0  0
 20 21  2  0  0  0  0
 21 22  1  0  0  0  0
 22 23  2  0  0  0  0
 23 18  1  0  0  0  0
 24  5  1  0  0  0  0
M  END
>  <CHROM.1>
156.32446105,12.10179665,173.88620066,-111.57499441,-174.59034861,59.81820225
-178.02548866,7.05509650,42.05036082,-43.85273540,4.39585470,-2.50806402
-1.10348630,-1.88743232

>  <Name>
design_6

>  <RI>
0

>  <Rbt.Current_Directory>
/home/ziqiaoxu/icml18-jtnn/VAEdesign

>  <Rbt.Executable>
rbdock ($Id: //depot/dev/client3/rdock/2013.1/src/exe/rbdock.cxx#4 $)

>  <Rbt.Library>
libRbt.so (2013.1, Build901 2013/11/27)

>  <Rbt.Parameter_File>
/export/apps/rDock/src/rDock_2013.1_src//data/scripts/dock.prm

>  <Rbt.Receptor>
/home/ziqiaoxu/icml18-jtnn/VAEdesign/targets/RdRp-SARS-CoV-2/pocket_docking.prm

>  <SCORE>
-24.9642

>  <SCORE.INTER>
-25.1845

>  <SCORE.INTER.CONST>
1

>  <SCORE.INTER.POLAR>
-3.68479

>  <SCORE.INTER.REPUL>
0

>  <SCORE.INTER.ROT>
8

>  <SCORE.INTER.VDW>
-26.0562

>  <SCORE.INTER.norm>
-1.04935

>  <SCORE.INTRA>
0.220298

>  <SCORE.INTRA.DIHEDRAL>
-0.633296

>  <SCORE.INTRA.DIHEDRAL.0>
5.85865

>  <SCORE.INTRA.POLAR>
0

>  <SCORE.INTRA.POLAR.0>
0

>  <SCORE.INTRA.REPUL>
0

>  <SCORE.INTRA.REPUL.0>
0

>  <SCORE.INTRA.VDW>
0.536946

>  <SCORE.INTRA.VDW.0>
-2.21127

>  <SCORE.INTRA.norm>
0.00917907

>  <SCORE.RESTR>
0

>  <SCORE.RESTR.CAVITY>
0

>  <SCORE.RESTR.norm>
0

>  <SCORE.SYSTEM>
0

>  <SCORE.SYSTEM.CONST>
0

>  <SCORE.SYSTEM.DIHEDRAL>
0

>  <SCORE.SYSTEM.norm>
0

>  <SCORE.heavy>
24

>  <SCORE.norm>
-1.04017

$$$$
design_0
 OpenBabel05252019093D

 25 26  0  0  0  0  0  0  0  0999 V2000
   41.4029  -38.2287    1.7660 C   0  0  0  0  0  0  0  0  0  0  0  0
   42.2206  -39.3299    1.1963 C   0  0  0  0  0  0  0  0  0  0  0  0
   43.3334  -39.1156    0.4164 C   0  0  0  0  0  0  0  0  0  0  0  0
   44.0528  -40.1625   -0.0847 C   0  0  0  0  0  0  0  0  0  0  0  0
   45.2599  -39.9163   -0.9307 C   0  0  0  0  0  0  0  0  0  0  0  0
   43.6263  -41.4328    0.2175 C   0  0  0  0  0  0  0  0  0  0  0  0
   42.5065  -41.7044    1.0024 C   0  0  0  0  0  0  0  0  0  0  0  0
   42.1347  -43.0768    1.2663 C   0  0  0  0  0  0  0  0  0  0  0  0
   42.8386  -44.0034    0.7909 O   0  0  0  0  0  0  0  0  0  0  0  0
   40.9982  -43.3870    2.0462 N   0  0  0  0  0  0  0  0  0  0  0  0
   40.6267  -44.7425    2.2938 C   0  0  0  0  0  0  0  0  0  0  0  0
   40.3231  -44.8988    3.7724 C   0  0  0  0  0  0  0  0  0  0  0  0
   40.0992  -43.8770    4.4606 O   0  0  0  0  0  0  0  0  0  0  0  0
   40.3263  -46.2348    4.2295 N   0  0  0  0  0  0  0  0  0  0  0  0
   40.0757  -46.6082    5.5696 C   0  0  0  0  0  0  0  0  0  0  0  0
   39.3728  -47.8065    5.8253 C   0  0  0  0  0  0  0  0  0  0  0  0
   39.1198  -48.2259    7.1061 C   0  0  0  0  0  0  0  0  0  0  0  0
   39.5511  -47.4786    8.1850 C   0  0  0  0  0  0  0  0  0  0  0  0
   40.2403  -46.3035    7.9876 C   0  0  0  0  0  0  0  0  0  0  0  0
   40.8062  -45.3234    9.3321 S   0  0  0  0  0  0  0  0  0  0  0  0
   40.3034  -45.9585   10.8440 N   0  0  0  0  0  0  0  0  0  0  0  0
   42.3078  -45.2210    9.3194 O   0  0  0  0  0  0  0  0  0  0  0  0
   40.2704  -43.9224    9.1608 O   0  0  0  0  0  0  0  0  0  0  0  0
   40.4747  -45.9167    6.6675 C   0  0  0  0  0  0  0  0  0  0  0  0
   41.8045  -40.6337    1.4912 C   0  0  0  0  0  0  0  0  0  0  0  0
  1  2  1  0  0  0  0
  2  3  2  0  0  0  0
  3  4  1  0  0  0  0
  4  5  1  0  0  0  0
  4  6  2  0  0  0  0
  6  7  1  0  0  0  0
  7  8  1  0  0  0  0
  7 25  2  0  0  0  0
  8  9  2  0  0  0  0
  8 10  1  0  0  0  0
 10 11  1  0  0  0  0
 11 12  1  0  0  0  0
 12 13  2  0  0  0  0
 12 14  1  0  0  0  0
 14 15  1  0  0  0  0
 15 16  2  0  0  0  0
 16 17  1  0  0  0  0
 17 18  2  0  0  0  0
 18 19  1  0  0  0  0
 19 20  1  0  0  0  0
 19 24  2  0  0  0  0
 20 21  1  0  0  0  0
 20 22  2  0  0  0  0
 20 23  2  0  0  0  0
 24 15  1  0  0  0  0
 25  2  1  0  0  0  0
M  END
>  <CHROM.1>
0.65044401,133.29177659,17.66994551,144.34672866,-3.79137800,44.93022461
41.32838250,-43.83586457,4.50898477,-0.71700507,1.20318843,1.36800770

>  <Name>
design_0

>  <RI>
0

>  <Rbt.Current_Directory>
/home/ziqiaoxu/icml18-jtnn/VAEdesign

>  <Rbt.Executable>
rbdock ($Id: //depot/dev/client3/rdock/2013.1/src/exe/rbdock.cxx#4 $)

>  <Rbt.Library>
libRbt.so (2013.1, Build901 2013/11/27)

>  <Rbt.Parameter_File>
/export/apps/rDock/src/rDock_2013.1_src//data/scripts/dock.prm

>  <Rbt.Receptor>
/home/ziqiaoxu/icml18-jtnn/VAEdesign/targets/RdRp-SARS-CoV-2/pocket_docking.prm

>  <SCORE>
-26.3641

>  <SCORE.INTER>
-26.8224

>  <SCORE.INTER.CONST>
1

>  <SCORE.INTER.POLAR>
-3.57836

>  <SCORE.INTER.REPUL>
0

>  <SCORE.INTER.ROT>
6

>  <SCORE.INTER.VDW>
-26.056

>  <SCORE.INTER.norm>
-1.0729

>  <SCORE.INTRA>
0.458321

>  <SCORE.INTRA.DIHEDRAL>
2.17012

>  <SCORE.INTRA.DIHEDRAL.0>
6.36531

>  <SCORE.INTRA.POLAR>
0

>  <SCORE.INTRA.POLAR.0>
0

>  <SCORE.INTRA.REPUL>
0

>  <SCORE.INTRA.REPUL.0>
0

>  <SCORE.INTRA.VDW>
-0.62674

>  <SCORE.INTRA.VDW.0>
-1.03474

>  <SCORE.INTRA.norm>
0.0183328

>  <SCORE.RESTR>
0

>  <SCORE.RESTR.CAVITY>
0

>  <SCORE.RESTR.norm>
0

>  <SCORE.SYSTEM>
0

>  <SCORE.SYSTEM.CONST>
0

>  <SCORE.SYSTEM.DIHEDRAL>
0

>  <SCORE.SYSTEM.norm>
0

>  <SCORE.heavy>
25

>  <SCORE.norm>
-1.05456

$$$$
design_2
 OpenBabel05252019093D

 22 23  0  0  0  0  0  0  0  0999 V2000
   40.3768  -38.4144    5.2931 C   0  0  0  0  0  0  0  0  0  0  0  0
   40.3943  -39.3147    6.5195 C   0  0  1  0  0  0  0  0  0  0  0  0
   40.1991  -38.5110    7.7901 C   0  0  0  0  0  0  0  0  0  0  0  0
   40.5887  -39.4874    8.9023 C   0  0  0  0  0  0  0  0  0  0  0  0
   39.5435  -40.5819    8.9552 C   0  0  2  0  0  0  0  0  0  0  0  0
   40.2431  -41.8317    9.1674 N   0  0  0  0  0  0  0  0  0  0  0  0
   39.9150  -42.7656   10.1799 C   0  0  0  0  0  0  0  0  0  0  0  0
   38.9660  -42.5405   10.9658 O   0  0  0  0  0  0  0  0  0  0  0  0
   40.6992  -44.0076   10.3154 C   0  0  0  0  0  0  0  0  0  0  0  0
   39.8644  -45.1333    9.9867 N   0  0  0  0  0  0  0  0  0  0  0  0
   40.3268  -46.1059    9.0634 C   0  0  0  0  0  0  0  0  0  0  0  0
   41.4632  -46.0053    8.5576 O   0  0  0  0  0  0  0  0  0  0  0  0
   39.4807  -47.2665    8.6708 C   0  0  0  0  0  0  0  0  0  0  0  0
   38.5450  -46.9010    7.6147 C   0  0  0  0  0  0  0  0  0  0  0  0
   37.8936  -45.6957    7.5884 C   0  0  0  0  0  0  0  0  0  0  0  0
   37.0345  -45.3147    6.5550 C   0  0  0  0  0  0  0  0  0  0  0  0
   36.8509  -46.2150    5.5244 C   0  0  0  0  0  0  0  0  0  0  0  0
   37.4919  -47.4422    5.5176 C   0  0  0  0  0  0  0  0  0  0  0  0
   38.3340  -47.7859    6.5553 C   0  0  0  0  0  0  0  0  0  0  0  0
   39.1548  -49.3243    6.6042 Cl  0  0  0  0  0  0  0  0  0  0  0  0
   38.6572  -40.6345    7.7787 C   0  0  0  0  0  0  0  0  0  0  0  0
   39.2964  -40.3272    6.4575 C   0  0  0  0  0  0  0  0  0  0  0  0
  2  1  1  6  0  0  0
  2  3  1  0  0  0  0
  3  4  1  0  0  0  0
  4  5  1  0  0  0  0
  5  6  1  6  0  0  0
  5 21  1  0  0  0  0
  6  7  1  0  0  0  0
  7  8  2  0  0  0  0
  7  9  1  0  0  0  0
  9 10  1  0  0  0  0
 10 11  1  0  0  0  0
 11 12  2  0  0  0  0
 11 13  1  0  0  0  0
 13 14  1  0  0  0  0
 14 15  2  0  0  0  0
 15 16  1  0  0  0  0
 16 17  2  0  0  0  0
 17 18  1  0  0  0  0
 18 19  2  0  0  0  0
 19 20  1  0  0  0  0
 19 14  1  0  0  0  0
 21 22  1  0  0  0  0
 22  2  1  0  0  0  0
M  END
>  <CHROM.1>
128.83384317,-113.22621875,130.04452567,82.98212402,-39.62845330,39.36136259
-44.01020458,7.88112938,1.18469266,-1.15420291,-0.25997358

>  <Name>
design_2

>  <RI>
0

>  <Rbt.Current_Directory>
/home/ziqiaoxu/icml18-jtnn/VAEdesign

>  <Rbt.Executable>
rbdock ($Id: //depot/dev/client3/rdock/2013.1/src/exe/rbdock.cxx#4 $)

>  <Rbt.Library>
libRbt.so (2013.1, Build901 2013/11/27)

>  <Rbt.Parameter_File>
/export/apps/rDock/src/rDock_2013.1_src//data/scripts/dock.prm

>  <Rbt.Receptor>
/home/ziqiaoxu/icml18-jtnn/VAEdesign/targets/RdRp-SARS-CoV-2/pocket_docking.prm

>  <SCORE>
-20.5389

>  <SCORE.INTER>
-19.1228

>  <SCORE.INTER.CONST>
1

>  <SCORE.INTER.POLAR>
-1.0198

>  <SCORE.INTER.REPUL>
0

>  <SCORE.INTER.ROT>
5

>  <SCORE.INTER.VDW>
-26.0555

>  <SCORE.INTER.norm>
-0.869218

>  <SCORE.INTRA>
-1.41611

>  <SCORE.INTRA.DIHEDRAL>
-0.0549452

>  <SCORE.INTRA.DIHEDRAL.0>
5.80755

>  <SCORE.INTRA.POLAR>
0

>  <SCORE.INTRA.POLAR.0>
0

>  <SCORE.INTRA.REPUL>
0

>  <SCORE.INTRA.REPUL.0>
0

>  <SCORE.INTRA.VDW>
-1.38864

>  <SCORE.INTRA.VDW.0>
-0.72598

>  <SCORE.INTRA.norm>
-0.0643686

>  <SCORE.RESTR>
0

>  <SCORE.RESTR.CAVITY>
0

>  <SCORE.RESTR.norm>
0

>  <SCORE.SYSTEM>
0

>  <SCORE.SYSTEM.CONST>
0

>  <SCORE.SYSTEM.DIHEDRAL>
0

>  <SCORE.SYSTEM.norm>
0

>  <SCORE.heavy>
22

>  <SCORE.norm>
-0.933587

$$$$
design_8
 OpenBabel05252019093D

 24 26  0  0  0  0  0  0  0  0999 V2000
   38.3144  -46.3749    8.9542 C   0  0  0  0  0  0  0  0  0  0  0  0
   39.8031  -46.1325    8.6674 C   0  0  0  0  0  0  0  0  0  0  0  0
   40.3761  -46.9620    7.7653 C   0  0  0  0  0  0  0  0  0  0  0  0
   41.6183  -46.6724    7.2217 C   0  0  0  0  0  0  0  0  0  0  0  0
   42.3430  -45.5115    7.6296 C   0  0  0  0  0  0  0  0  0  0  0  0
   41.6427  -44.8149    8.5749 C   0  0  0  0  0  0  0  0  0  0  0  0
   40.5139  -44.9620    9.1059 C   0  0  0  0  0  0  0  0  0  0  0  0
   39.8512  -44.0500    9.9621 C   0  0  0  0  0  0  0  0  0  0  0  0
   40.3273  -43.2261   10.8764 N   0  0  0  0  0  0  0  0  0  0  0  0
   39.6326  -41.8661   11.2818 C   0  0  0  0  0  0  0  0  0  0  0  0
   39.3091  -41.6885   12.3195 O   0  0  0  0  0  0  0  0  0  0  0  0
   39.7027  -41.2563   10.0356 N   0  0  0  0  0  0  0  0  0  0  0  0
   40.4309  -41.2392    8.9053 C   0  0  0  0  0  0  0  0  0  0  0  0
   40.4480  -40.3183    7.8721 C   0  0  0  0  0  0  0  0  0  0  0  0
   40.3641  -38.9618    7.9786 C   0  0  0  0  0  0  0  0  0  0  0  0
   40.3870  -38.1246    6.9338 C   0  0  0  0  0  0  0  0  0  0  0  0
   40.4702  -38.6866    5.6358 C   0  0  0  0  0  0  0  0  0  0  0  0
   40.1728  -37.9079    4.4535 N   0  0  0  0  0  0  0  0  0  0  0  0
   40.1715  -38.2840    3.2547 C   0  0  0  0  0  0  0  0  0  0  0  0
   39.9314  -37.2278    2.4367 C   0  0  0  0  0  0  0  0  0  0  0  0
   39.8305  -36.1420    3.2980 C   0  0  0  0  0  0  0  0  0  0  0  0
   39.9961  -36.6100    4.5519 N   0  0  0  0  0  0  0  0  0  0  0  0
   40.4855  -39.9910    5.6020 N   0  0  0  0  0  0  0  0  0  0  0  0
   40.4976  -40.8407    6.5086 C   0  0  0  0  0  0  0  0  0  0  0  0
  1  2  1  0  0  0  0
  2  3  2  0  0  0  0
  3  4  1  0  0  0  0
  4  5  2  0  0  0  0
  5  6  1  0  0  0  0
  6  7  2  0  0  0  0
  7  8  1  0  0  0  0
  7  2  1  0  0  0  0
  8  9  1  0  0  0  0
  9 10  1  0  0  0  0
 10 11  2  0  0  0  0
 10 12  1  0  0  0  0
 12 13  1  0  0  0  0
 13 14  1  0  0  0  0
 14 15  2  0  0  0  0
 15 16  1  0  0  0  0
 16 17  2  0  0  0  0
 17 18  1  0  0  0  0
 17 23  1  0  0  0  0
 18 19  1  0  0  0  0
 19 20  2  0  0  0  0
 20 21  1  0  0  0  0
 21 22  2  0  0  0  0
 22 18  1  0  0  0  0
 23 24  2  0  0  0  0
 24 14  1  0  0  0  0
M  END
>  <CHROM.1>
151.70705222,151.32161093,-27.77713578,-164.99059605,39.19114898,-177.95261180
40.25256003,-41.57610531,7.55791643,-1.49357091,1.38594467,-0.66037493

>  <Name>
design_8

>  <RI>
0

>  <Rbt.Current_Directory>
/home/ziqiaoxu/icml18-jtnn/VAEdesign

>  <Rbt.Executable>
rbdock ($Id: //depot/dev/client3/rdock/2013.1/src/exe/rbdock.cxx#4 $)

>  <Rbt.Library>
libRbt.so (2013.1, Build901 2013/11/27)

>  <Rbt.Parameter_File>
/export/apps/rDock/src/rDock_2013.1_src//data/scripts/dock.prm

>  <Rbt.Receptor>
/home/ziqiaoxu/icml18-jtnn/VAEdesign/targets/RdRp-SARS-CoV-2/pocket_docking.prm

>  <SCORE>
-16.6933

>  <SCORE.INTER>
-17.8563

>  <SCORE.INTER.CONST>
1

>  <SCORE.INTER.POLAR>
-0.941535

>  <SCORE.INTER.REPUL>
0

>  <SCORE.INTER.ROT>
6

>  <SCORE.INTER.VDW>
-26.0551

>  <SCORE.INTER.norm>
-0.744012

>  <SCORE.INTRA>
1.16304

>  <SCORE.INTRA.DIHEDRAL>
0.209001

>  <SCORE.INTRA.DIHEDRAL.0>
4.34386

>  <SCORE.INTRA.POLAR>
0

>  <SCORE.INTRA.POLAR.0>
0

>  <SCORE.INTRA.REPUL>
0

>  <SCORE.INTRA.REPUL.0>
0

>  <SCORE.INTRA.VDW>
1.05854

>  <SCORE.INTRA.VDW.0>
-2.16918

>  <SCORE.INTRA.norm>
0.0484599

>  <SCORE.RESTR>
0

>  <SCORE.RESTR.CAVITY>
0

>  <SCORE.RESTR.norm>
0

>  <SCORE.SYSTEM>
0

>  <SCORE.SYSTEM.CONST>
0

>  <SCORE.SYSTEM.DIHEDRAL>
0

>  <SCORE.SYSTEM.norm>
0

>  <SCORE.heavy>
24

>  <SCORE.norm>
-0.695552

$$$$
design_1
 OpenBabel05252019093D

 25 27  0  0  0  0  0  0  0  0999 V2000
   38.7535  -48.8268    6.3798 C   0  0  0  0  0  0  0  0  0  0  0  0
   40.0795  -48.1873    6.7273 C   0  0  0  0  0  0  0  0  0  0  0  0
   39.8967  -47.1848    7.8036 C   0  0  0  0  0  0  0  0  0  0  0  0
   40.3365  -45.8823    7.7539 C   0  0  0  0  0  0  0  0  0  0  0  0
   39.9970  -45.2275    8.9357 C   0  0  0  0  0  0  0  0  0  0  0  0
   40.2700  -43.8477    9.2947 C   0  0  0  0  0  0  0  0  0  0  0  0
   41.2189  -43.2561    8.7468 O   0  0  0  0  0  0  0  0  0  0  0  0
   39.4794  -43.1922   10.2415 N   0  0  0  0  0  0  0  0  0  0  0  0
   39.7278  -41.8226   10.6134 C   0  0  0  0  0  0  0  0  0  0  0  0
   39.7235  -40.8673    9.5159 C   0  0  0  0  0  0  0  0  0  0  0  0
   40.5098  -39.7373    9.5570 C   0  0  0  0  0  0  0  0  0  0  0  0
   40.4966  -38.8367    8.4941 C   0  0  0  0  0  0  0  0  0  0  0  0
   39.7340  -39.0105    7.3878 C   0  0  0  0  0  0  0  0  0  0  0  0
   39.7098  -38.1468    6.2932 N   0  0  0  0  0  0  0  0  0  0  0  0
   39.6957  -38.5301    4.9418 C   0  0  0  0  0  0  0  0  0  0  0  0
   39.6947  -39.7143    4.5606 O   0  0  0  0  0  0  0  0  0  0  0  0
   39.6816  -37.4788    3.8634 C   0  0  0  0  0  0  0  0  0  0  0  0
   40.8642  -36.5277    4.0834 C   0  0  0  0  0  0  0  0  0  0  0  0
   40.9582  -35.8771    2.7126 C   0  0  0  0  0  0  0  0  0  0  0  0
   40.7865  -37.0360    1.7623 C   0  0  0  0  0  0  0  0  0  0  0  0
   40.0617  -38.1228    2.5551 C   0  0  0  0  0  0  0  0  0  0  0  0
   38.9345  -40.1613    7.3491 C   0  0  0  0  0  0  0  0  0  0  0  0
   38.9541  -41.0447    8.4032 C   0  0  0  0  0  0  0  0  0  0  0  0
   39.3533  -46.1761    9.6681 N   0  0  0  0  0  0  0  0  0  0  0  0
   39.3022  -47.3230    8.9880 N   0  0  0  0  0  0  0  0  0  0  0  0
  1  2  1  0  0  0  0
  2  3  1  0  0  0  0
  3  4  1  0  0  0  0
  4  5  2  0  0  0  0
  5  6  1  0  0  0  0
  5 24  1  0  0  0  0
  6  7  2  0  0  0  0
  6  8  1  0  0  0  0
  8  9  1  0  0  0  0
  9 10  1  0  0  0  0
 10 11  2  0  0  0  0
 11 12  1  0  0  0  0
 12 13  2  0  0  0  0
 13 14  1  0  0  0  0
 13 22  1  0  0  0  0
 14 15  1  0  0  0  0
 15 16  2  0  0  0  0
 15 17  1  0  0  0  0
 17 18  1  0  0  0  0
 18 19  1  0  0  0  0
 19 20  1  0  0  0  0
 20 21  1  0  0  0  0
 21 17  1  0  0  0  0
 22 23  2  0  0  0  0
 23 10  1  0  0  0  0
 24 25  1  0  0  0  0
 25  3  2  0  0  0  0
M  END
>  <CHROM.1>
-128.11305224,-23.92702608,56.39342283,-149.20501018,137.63382530,54.53411844
39.92780582,-41.69785395,7.03631139,-3.12366254,1.51111704,1.09625299

>  <Name>
design_1

>  <RI>
0

>  <Rbt.Current_Directory>
/home/ziqiaoxu/icml18-jtnn/VAEdesign

>  <Rbt.Executable>
rbdock ($Id: //depot/dev/client3/rdock/2013.1/src/exe/rbdock.cxx#4 $)

>  <Rbt.Library>
libRbt.so (2013.1, Build901 2013/11/27)

>  <Rbt.Parameter_File>
/export/apps/rDock/src/rDock_2013.1_src//data/scripts/dock.prm

>  <Rbt.Receptor>
/home/ziqiaoxu/icml18-jtnn/VAEdesign/targets/RdRp-SARS-CoV-2/pocket_docking.prm

>  <SCORE>
-20.4307

>  <SCORE.INTER>
-21.5841

>  <SCORE.INTER.CONST>
1

>  <SCORE.INTER.POLAR>
-2.03961

>  <SCORE.INTER.REPUL>
0

>  <SCORE.INTER.ROT>
6

>  <SCORE.INTER.VDW>
-26.0495

>  <SCORE.INTER.norm>
-0.863365

>  <SCORE.INTRA>
1.15342

>  <SCORE.INTRA.DIHEDRAL>
3.52378

>  <SCORE.INTRA.DIHEDRAL.0>
6.87861

>  <SCORE.INTRA.POLAR>
0

>  <SCORE.INTRA.POLAR.0>
0

>  <SCORE.INTRA.REPUL>
0

>  <SCORE.INTRA.REPUL.0>
0

>  <SCORE.INTRA.VDW>
-0.608474

>  <SCORE.INTRA.VDW.0>
0.317551

>  <SCORE.INTRA.norm>
0.0461366

>  <SCORE.RESTR>
0

>  <SCORE.RESTR.CAVITY>
0

>  <SCORE.RESTR.norm>
0

>  <SCORE.SYSTEM>
0

>  <SCORE.SYSTEM.CONST>
0

>  <SCORE.SYSTEM.DIHEDRAL>
0

>  <SCORE.SYSTEM.norm>
0

>  <SCORE.heavy>
25

>  <SCORE.norm>
-0.817229

$$$$
design_19
 OpenBabel05252019093D

 24 26  0  0  0  0  0  0  0  0999 V2000
   40.9816  -41.9542    7.8689 C   0  0  0  0  0  0  0  0  0  0  0  0
   40.8024  -40.4890    7.5233 C   0  0  0  0  0  0  0  0  0  0  0  0
   40.7304  -39.9238    6.3445 N   0  0  0  0  0  0  0  0  0  0  0  0
   40.5727  -38.6377    6.2430 C   0  0  0  0  0  0  0  0  0  0  0  0
   40.4876  -37.9735    4.9096 C   0  0  0  0  0  0  0  0  0  0  0  0
   39.9544  -36.7118    4.7570 C   0  0  0  0  0  0  0  0  0  0  0  0
   39.8695  -36.0782    3.5474 C   0  0  0  0  0  0  0  0  0  0  0  0
   40.3312  -36.7070    2.4123 C   0  0  0  0  0  0  0  0  0  0  0  0
   40.8664  -37.9648    2.5431 C   0  0  0  0  0  0  0  0  0  0  0  0
   41.3785  -38.6701    1.3518 C   0  0  0  0  0  0  0  0  0  0  0  0
   41.3708  -40.1108    1.5512 N   0  0  0  0  0  0  0  0  0  0  0  0
   42.3854  -40.9103    0.9899 C   0  0  0  0  0  0  0  0  0  0  0  0
   43.3313  -40.4019    0.2963 O   0  0  0  0  0  0  0  0  0  0  0  0
   42.4105  -42.3509    1.1681 C   0  0  0  0  0  0  0  0  0  0  0  0
   41.5155  -42.9677    2.0491 C   0  0  0  0  0  0  0  0  0  0  0  0
   41.5272  -44.3248    2.2246 C   0  0  0  0  0  0  0  0  0  0  0  0
   42.4102  -45.1359    1.5495 C   0  0  0  0  0  0  0  0  0  0  0  0
   43.2887  -44.5604    0.6884 C   0  0  0  0  0  0  0  0  0  0  0  0
   44.2374  -45.3702   -0.0454 C   0  0  0  0  0  0  0  0  0  0  0  0
   44.9901  -46.0305   -0.6341 N   0  0  0  0  0  0  0  0  0  0  0  0
   43.2764  -43.1708    0.5093 C   0  0  0  0  0  0  0  0  0  0  0  0
   40.9457  -38.5973    3.7813 C   0  0  0  0  0  0  0  0  0  0  0  0
   40.4884  -37.9249    7.4171 C   0  0  0  0  0  0  0  0  0  0  0  0
   40.6427  -39.1619    8.5855 S   0  0  0  0  0  0  0  0  0  0  0  0
  1  2  1  0  0  0  0
  2  3  2  0  0  0  0
  3  4  1  0  0  0  0
  4  5  1  0  0  0  0
  4 23  2  0  0  0  0
  5  6  2  0  0  0  0
  6  7  1  0  0  0  0
  7  8  2  0  0  0  0
  8  9  1  0  0  0  0
  9 10  1  0  0  0  0
  9 22  2  0  0  0  0
 10 11  1  0  0  0  0
 11 12  1  0  0  0  0
 12 13  2  0  0  0  0
 12 14  1  0  0  0  0
 14 15  2  0  0  0  0
 15 16  1  0  0  0  0
 16 17  2  0  0  0  0
 17 18  1  0  0  0  0
 18 19  1  0  0  0  0
 18 21  2  0  0  0  0
 19 20  3  0  0  0  0
 21 14  1  0  0  0  0
 22  5  1  0  0  0  0
 23 24  1  0  0  0  0
 24  2  1  0  0  0  0
M  END
>  <CHROM.1>
161.28094140,-155.91531786,-145.13460066,-8.16688905,41.56881349,-40.58787632
3.53127579,-2.92119003,1.22906425,-0.99183705

>  <Name>
design_19

>  <RI>
0

>  <Rbt.Current_Directory>
/home/ziqiaoxu/icml18-jtnn/VAEdesign

>  <Rbt.Executable>
rbdock ($Id: //depot/dev/client3/rdock/2013.1/src/exe/rbdock.cxx#4 $)

>  <Rbt.Library>
libRbt.so (2013.1, Build901 2013/11/27)

>  <Rbt.Parameter_File>
/export/apps/rDock/src/rDock_2013.1_src//data/scripts/dock.prm

>  <Rbt.Receptor>
/home/ziqiaoxu/icml18-jtnn/VAEdesign/targets/RdRp-SARS-CoV-2/pocket_docking.prm

>  <SCORE>
-19.6342

>  <SCORE.INTER>
-20.5327

>  <SCORE.INTER.CONST>
1

>  <SCORE.INTER.POLAR>
-1.14362

>  <SCORE.INTER.REPUL>
0.000838788

>  <SCORE.INTER.ROT>
4

>  <SCORE.INTER.VDW>
-26.0486

>  <SCORE.INTER.norm>
-0.85553

>  <SCORE.INTRA>
0.898527

>  <SCORE.INTRA.DIHEDRAL>
1.44788

>  <SCORE.INTRA.DIHEDRAL.0>
2.07452

>  <SCORE.INTRA.POLAR>
0

>  <SCORE.INTRA.POLAR.0>
0

>  <SCORE.INTRA.REPUL>
0

>  <SCORE.INTRA.REPUL.0>
0

>  <SCORE.INTRA.VDW>
0.174589

>  <SCORE.INTRA.VDW.0>
-0.320798

>  <SCORE.INTRA.norm>
0.0374386

>  <SCORE.RESTR>
0

>  <SCORE.RESTR.CAVITY>
0

>  <SCORE.RESTR.norm>
0

>  <SCORE.SYSTEM>
0

>  <SCORE.SYSTEM.CONST>
0

>  <SCORE.SYSTEM.DIHEDRAL>
0

>  <SCORE.SYSTEM.norm>
0

>  <SCORE.heavy>
24

>  <SCORE.norm>
-0.818092

$$$$
design_8
 OpenBabel05252019093D

 28 31  0  0  0  0  0  0  0  0999 V2000
   41.2453  -35.8009    1.9667 C   0  0  0  0  0  0  0  0  0  0  0  0
   41.4066  -37.2587    1.7345 C   0  0  0  0  0  0  0  0  0  0  0  0
   40.4559  -38.1738    1.9634 N   0  0  0  0  0  0  0  0  0  0  0  0
   40.8993  -39.3933    1.6630 N   0  0  0  0  0  0  0  0  0  0  0  0
   42.1872  -39.2561    1.2234 C   0  0  0  0  0  0  0  0  0  0  0  0
   42.9906  -40.4074    0.8153 C   0  0  0  0  0  0  0  0  0  0  0  0
   44.1937  -40.1694    0.1849 C   0  0  0  0  0  0  0  0  0  0  0  0
   45.0044  -41.1855   -0.2072 C   0  0  0  0  0  0  0  0  0  0  0  0
   44.5961  -42.4935    0.0407 C   0  0  0  0  0  0  0  0  0  0  0  0
   43.4282  -42.7804    0.6531 C   0  0  0  0  0  0  0  0  0  0  0  0
   42.9273  -44.1117    0.9573 C   0  0  0  0  0  0  0  0  0  0  0  0
   43.6576  -44.8705    1.9319 N   0  0  0  0  0  0  0  0  0  0  0  0
   43.7776  -44.4281    3.2665 C   0  0  0  0  0  0  0  0  0  0  0  0
   43.2534  -43.3822    3.6658 O   0  0  0  0  0  0  0  0  0  0  0  0
   44.5779  -45.3009    4.1853 C   0  0  0  0  0  0  0  0  0  0  0  0
   43.9366  -45.3742    5.5373 C   0  0  0  0  0  0  0  0  0  0  0  0
   42.7385  -45.9536    5.8136 N   0  0  0  0  0  0  0  0  0  0  0  0
   42.4649  -45.8356    7.1178 C   0  0  0  0  0  0  0  0  0  0  0  0
   41.2289  -46.3572    7.7789 C   0  0  0  0  0  0  0  0  0  0  0  0
   40.4069  -47.2559    7.2279 C   0  0  0  0  0  0  0  0  0  0  0  0
   39.3172  -47.6519    7.9454 C   0  0  0  0  0  0  0  0  0  0  0  0
   39.4638  -46.7516    9.3890 S   0  0  0  0  0  0  0  0  0  0  0  0
   40.9016  -45.9048    9.0341 C   0  0  0  0  0  0  0  0  0  0  0  0
   43.4586  -45.2010    7.6561 O   0  0  0  0  0  0  0  0  0  0  0  0
   44.3699  -44.9020    6.7449 C   0  0  0  0  0  0  0  0  0  0  0  0
   45.6514  -44.1812    6.9607 C   0  0  0  0  0  0  0  0  0  0  0  0
   42.6252  -41.6933    1.0389 C   0  0  0  0  0  0  0  0  0  0  0  0
   42.4640  -37.9574    1.2780 N   0  0  0  0  0  0  0  0  0  0  0  0
  1  2  1  0  0  0  0
  2  3  2  0  0  0  0
  3  4  1  0  0  0  0
  4  5  1  0  0  0  0
  5  6  1  0  0  0  0
  5 28  2  0  0  0  0
  6  7  2  0  0  0  0
  7  8  1  0  0  0  0
  8  9  2  0  0  0  0
  9 10  1  0  0  0  0
 10 11  1  0  0  0  0
 10 27  2  0  0  0  0
 11 12  1  0  0  0  0
 12 13  1  0  0  0  0
 13 14  2  0  0  0  0
 13 15  1  0  0  0  0
 15 16  1  0  0  0  0
 16 17  1  0  0  0  0
 17 18  2  0  0  0  0
 18 19  1  0  0  0  0
 18 24  1  0  0  0  0
 19 20  1  0  0  0  0
 20 21  2  0  0  0  0
 21 22  1  0  0  0  0
 22 23  1  0  0  0  0
 23 19  2  0  0  0  0
 24 25  1  0  0  0  0
 25 26  1  0  0  0  0
 25 16  2  0  0  0  0
 27  6  1  0  0  0  0
 28  2  1  0  0  0  0
M  END
>  <CHROM.1>
169.70836056,66.79437651,62.44572293,-140.29865040,66.52229198,16.06036782
42.48662852,-43.15948171,4.10924174,1.40540947,0.73774920,-0.66598615

>  <Name>
design_8

>  <RI>
0

>  <Rbt.Current_Directory>
/home/ziqiaoxu/icml18-jtnn/VAEdesign

>  <Rbt.Executable>
rbdock ($Id: //depot/dev/client3/rdock/2013.1/src/exe/rbdock.cxx#4 $)

>  <Rbt.Library>
libRbt.so (2013.1, Build901 2013/11/27)

>  <Rbt.Parameter_File>
/export/apps/rDock/src/rDock_2013.1_src//data/scripts/dock.prm

>  <Rbt.Receptor>
/home/ziqiaoxu/icml18-jtnn/VAEdesign/targets/RdRp-SARS-CoV-2/pocket_docking.prm

>  <SCORE>
-19.1671

>  <SCORE.INTER>
-18.5373

>  <SCORE.INTER.CONST>
1

>  <SCORE.INTER.POLAR>
-1.14564

>  <SCORE.INTER.REPUL>
0

>  <SCORE.INTER.ROT>
6

>  <SCORE.INTER.VDW>
-26.0421

>  <SCORE.INTER.norm>
-0.662047

>  <SCORE.INTRA>
-0.629765

>  <SCORE.INTRA.DIHEDRAL>
-0.772907

>  <SCORE.INTRA.DIHEDRAL.0>
5.45249

>  <SCORE.INTRA.POLAR>
0

>  <SCORE.INTRA.POLAR.0>
0

>  <SCORE.INTRA.REPUL>
0

>  <SCORE.INTRA.REPUL.0>
0

>  <SCORE.INTRA.VDW>
-0.243312

>  <SCORE.INTRA.VDW.0>
-2.68337

>  <SCORE.INTRA.norm>
-0.0224916

>  <SCORE.RESTR>
0

>  <SCORE.RESTR.CAVITY>
0

>  <SCORE.RESTR.norm>
0

>  <SCORE.SYSTEM>
0

>  <SCORE.SYSTEM.CONST>
0

>  <SCORE.SYSTEM.DIHEDRAL>
0

>  <SCORE.SYSTEM.norm>
0

>  <SCORE.heavy>
28

>  <SCORE.norm>
-0.684539

$$$$
design_3
 OpenBabel05252019093D

 24 26  0  0  0  0  0  0  0  0999 V2000
   38.4873  -48.9852    6.8670 C   0  0  0  0  0  0  0  0  0  0  0  0
   38.9968  -47.8450    7.7198 C   0  0  0  0  0  0  0  0  0  0  0  0
   40.1890  -47.2807    7.6794 N   0  0  0  0  0  0  0  0  0  0  0  0
   40.4699  -46.3045    8.4857 C   0  0  0  0  0  0  0  0  0  0  0  0
   41.8032  -45.6375    8.4748 C   0  0  0  0  0  0  0  0  0  0  0  0
   42.1976  -44.8240    9.4932 C   0  0  0  0  0  0  0  0  0  0  0  0
   43.4148  -44.2181    9.4774 C   0  0  0  0  0  0  0  0  0  0  0  0
   44.2794  -44.4152    8.4254 C   0  0  0  0  0  0  0  0  0  0  0  0
   43.9470  -45.2152    7.3788 C   0  0  0  0  0  0  0  0  0  0  0  0
   44.7706  -45.5012    6.2686 N   0  0  0  0  0  0  0  0  0  0  0  0
   44.3922  -45.3600    4.9364 C   0  0  0  0  0  0  0  0  0  0  0  0
   43.2663  -44.9482    4.5936 O   0  0  0  0  0  0  0  0  0  0  0  0
   45.3222  -45.6964    3.8348 C   0  0  0  0  0  0  0  0  0  0  0  0
   46.5761  -46.2365    4.1423 C   0  0  0  0  0  0  0  0  0  0  0  0
   47.4647  -46.5555    3.1405 C   0  0  0  0  0  0  0  0  0  0  0  0
   47.1306  -46.3461    1.8099 C   0  0  0  0  0  0  0  0  0  0  0  0
   45.9144  -45.8204    1.4813 C   0  0  0  0  0  0  0  0  0  0  0  0
   45.5156  -45.5823    0.1230 N   0  0  0  0  0  0  0  0  0  0  0  0
   45.9152  -44.3961   -0.5899 C   0  0  0  0  0  0  0  0  0  0  0  0
   44.6878  -46.5581   -0.5560 C   0  0  0  0  0  0  0  0  0  0  0  0
   45.0361  -45.5070    2.5083 C   0  0  0  0  0  0  0  0  0  0  0  0
   42.6719  -45.8261    7.4343 C   0  0  0  0  0  0  0  0  0  0  0  0
   39.4870  -45.9039    9.3564 C   0  0  0  0  0  0  0  0  0  0  0  0
   38.2127  -46.9674    8.9543 S   0  0  0  0  0  0  0  0  0  0  0  0
  1  2  1  0  0  0  0
  2  3  2  0  0  0  0
  3  4  1  0  0  0  0
  4  5  1  0  0  0  0
  4 23  2  0  0  0  0
  5  6  2  0  0  0  0
  6  7  1  0  0  0  0
  7  8  2  0  0  0  0
  8  9  1  0  0  0  0
  9 10  1  0  0  0  0
  9 22  2  0  0  0  0
 10 11  1  0  0  0  0
 11 12  2  0  0  0  0
 11 13  1  0  0  0  0
 13 14  2  0  0  0  0
 14 15  1  0  0  0  0
 15 16  2  0  0  0  0
 16 17  1  0  0  0  0
 17 18  1  0  0  0  0
 17 21  2  0  0  0  0
 18 19  1  0  0  0  0
 18 20  1  0  0  0  0
 21 13  1  0  0  0  0
 22  5  1  0  0  0  0
 23 24  1  0  0  0  0
 24  2  1  0  0  0  0
M  END
>  <CHROM.1>
-165.64461413,-127.99368530,3.62271183,-82.33594319,43.06017127,-45.97803273
5.58538048,2.34560486,0.40812465,1.32151147

>  <Name>
design_3

>  <RI>
0

>  <Rbt.Current_Directory>
/home/ziqiaoxu/icml18-jtnn/VAEdesign

>  <Rbt.Executable>
rbdock ($Id: //depot/dev/client3/rdock/2013.1/src/exe/rbdock.cxx#4 $)

>  <Rbt.Library>
libRbt.so (2013.1, Build901 2013/11/27)

>  <Rbt.Parameter_File>
/export/apps/rDock/src/rDock_2013.1_src//data/scripts/dock.prm

>  <Rbt.Receptor>
/home/ziqiaoxu/icml18-jtnn/VAEdesign/targets/RdRp-SARS-CoV-2/pocket_docking.prm

>  <SCORE>
-13.0173

>  <SCORE.INTER>
-18.7647

>  <SCORE.INTER.CONST>
1

>  <SCORE.INTER.POLAR>
-0.624824

>  <SCORE.INTER.REPUL>
0

>  <SCORE.INTER.ROT>
4

>  <SCORE.INTER.VDW>
-26.0403

>  <SCORE.INTER.norm>
-0.781863

>  <SCORE.INTRA>
5.74739

>  <SCORE.INTRA.DIHEDRAL>
19.2201

>  <SCORE.INTRA.DIHEDRAL.0>
2.27544

>  <SCORE.INTRA.POLAR>
0

>  <SCORE.INTRA.POLAR.0>
0

>  <SCORE.INTRA.REPUL>
0

>  <SCORE.INTRA.REPUL.0>
0

>  <SCORE.INTRA.VDW>
-3.86265

>  <SCORE.INTRA.VDW.0>
3.33459

>  <SCORE.INTRA.norm>
0.239475

>  <SCORE.RESTR>
0

>  <SCORE.RESTR.CAVITY>
0

>  <SCORE.RESTR.norm>
0

>  <SCORE.SYSTEM>
0

>  <SCORE.SYSTEM.CONST>
0

>  <SCORE.SYSTEM.DIHEDRAL>
0

>  <SCORE.SYSTEM.norm>
0

>  <SCORE.heavy>
24

>  <SCORE.norm>
-0.542388

$$$$
design_2
 OpenBabel05252019093D

 22 23  0  0  0  0  0  0  0  0999 V2000
   44.7575  -45.8220   -0.2002 C   0  0  0  0  0  0  0  0  0  0  0  0
   45.3869  -46.0756    1.1195 C   0  0  0  0  0  0  0  0  0  0  0  0
   46.5081  -46.8702    1.1914 C   0  0  0  0  0  0  0  0  0  0  0  0
   47.0673  -47.0859    2.4281 C   0  0  0  0  0  0  0  0  0  0  0  0
   46.5343  -46.5269    3.6005 C   0  0  0  0  0  0  0  0  0  0  0  0
   45.4224  -45.7396    3.5254 C   0  0  0  0  0  0  0  0  0  0  0  0
   44.8278  -45.1394    4.6912 C   0  0  0  0  0  0  0  0  0  0  0  0
   43.9849  -44.2068    4.5015 O   0  0  0  0  0  0  0  0  0  0  0  0
   45.1551  -45.5570    6.0093 N   0  0  0  0  0  0  0  0  0  0  0  0
   44.4950  -44.8808    7.0912 C   0  0  0  0  0  0  0  0  0  0  0  0
   43.1621  -45.4381    7.3716 C   0  0  0  0  0  0  0  0  0  0  0  0
   42.5753  -46.1110    6.4613 O   0  0  0  0  0  0  0  0  0  0  0  0
   42.4983  -45.2649    8.6016 N   0  0  0  0  0  0  0  0  0  0  0  0
   41.1848  -45.8736    8.7353 C   0  0  0  0  0  0  0  0  0  0  0  0
   40.5262  -46.5865    7.8404 N   0  0  0  0  0  0  0  0  0  0  0  0
   39.3560  -47.0630    8.1150 C   0  0  0  0  0  0  0  0  0  0  0  0
   38.5593  -47.8881    7.1207 C   0  0  0  0  0  0  0  0  0  0  0  0
   39.3500  -49.0885    6.6913 C   0  0  0  0  0  0  0  0  0  0  0  0
   38.2073  -47.0015    5.9438 C   0  0  0  0  0  0  0  0  0  0  0  0
   38.8414  -46.7954    9.3615 C   0  0  0  0  0  0  0  0  0  0  0  0
   40.1008  -45.8657   10.0495 S   0  0  0  0  0  0  0  0  0  0  0  0
   44.8792  -45.5397    2.2588 C   0  0  0  0  0  0  0  0  0  0  0  0
  1  2  1  0  0  0  0
  2  3  2  0  0  0  0
  3  4  1  0  0  0  0
  4  5  2  0  0  0  0
  5  6  1  0  0  0  0
  6  7  1  0  0  0  0
  6 22  2  0  0  0  0
  7  8  2  0  0  0  0
  7  9  1  0  0  0  0
  9 10  1  0  0  0  0
 10 11  1  0  0  0  0
 11 12  2  0  0  0  0
 11 13  1  0  0  0  0
 13 14  1  0  0  0  0
 14 15  2  0  0  0  0
 15 16  1  0  0  0  0
 16 17  1  0  0  0  0
 16 20  2  0  0  0  0
 17 18  1  0  0  0  0
 17 19  1  0  0  0  0
 20 21  1  0  0  0  0
 21 14  1  0  0  0  0
 22  2  1  0  0  0  0
M  END
>  <CHROM.1>
165.30397653,83.45508614,-20.77115058,0.45628947,57.26111472,42.68781571
-46.17610505,5.84484178,0.73516624,-0.39476036,-1.87174208

>  <Name>
design_2

>  <RI>
0

>  <Rbt.Current_Directory>
/home/ziqiaoxu/icml18-jtnn/VAEdesign

>  <Rbt.Executable>
rbdock ($Id: //depot/dev/client3/rdock/2013.1/src/exe/rbdock.cxx#4 $)

>  <Rbt.Library>
libRbt.so (2013.1, Build901 2013/11/27)

>  <Rbt.Parameter_File>
/export/apps/rDock/src/rDock_2013.1_src//data/scripts/dock.prm

>  <Rbt.Receptor>
/home/ziqiaoxu/icml18-jtnn/VAEdesign/targets/RdRp-SARS-CoV-2/pocket_docking.prm

>  <SCORE>
-21.2092

>  <SCORE.INTER>
-18.6796

>  <SCORE.INTER.CONST>
1

>  <SCORE.INTER.POLAR>
-0.894427

>  <SCORE.INTER.REPUL>
0

>  <SCORE.INTER.ROT>
5

>  <SCORE.INTER.VDW>
-26.0385

>  <SCORE.INTER.norm>
-0.849072

>  <SCORE.INTRA>
-2.52959

>  <SCORE.INTRA.DIHEDRAL>
-1.29701

>  <SCORE.INTRA.DIHEDRAL.0>
4.67552

>  <SCORE.INTRA.POLAR>
0

>  <SCORE.INTRA.POLAR.0>
0

>  <SCORE.INTRA.REPUL>
0

>  <SCORE.INTRA.REPUL.0>
0

>  <SCORE.INTRA.VDW>
-1.88108

>  <SCORE.INTRA.VDW.0>
0.787782

>  <SCORE.INTRA.norm>
-0.114981

>  <SCORE.RESTR>
0

>  <SCORE.RESTR.CAVITY>
0

>  <SCORE.RESTR.norm>
0

>  <SCORE.SYSTEM>
0

>  <SCORE.SYSTEM.CONST>
0

>  <SCORE.SYSTEM.DIHEDRAL>
0

>  <SCORE.SYSTEM.norm>
0

>  <SCORE.heavy>
22

>  <SCORE.norm>
-0.964053

$$$$
design_17
 OpenBabel05252019093D

 24 25  0  0  0  0  0  0  0  0999 V2000
   40.0689  -36.2705    1.2706 C   0  0  0  0  0  0  0  0  0  0  0  0
   39.8908  -37.0864    2.4522 N   0  0  0  0  0  0  0  0  0  0  0  0
   40.3491  -36.6214    3.6974 C   0  0  0  0  0  0  0  0  0  0  0  0
   40.9110  -35.4960    3.7655 O   0  0  0  0  0  0  0  0  0  0  0  0
   40.1940  -37.4019    4.9117 C   0  0  0  0  0  0  0  0  0  0  0  0
   39.9230  -38.7362    4.9042 C   0  0  0  0  0  0  0  0  0  0  0  0
   39.7720  -39.4902    6.0734 C   0  0  0  0  0  0  0  0  0  0  0  0
   39.8943  -38.8976    7.2919 C   0  0  0  0  0  0  0  0  0  0  0  0
   39.7358  -39.5573    8.5305 N   0  0  0  0  0  0  0  0  0  0  0  0
   39.7343  -40.9548    8.6830 C   0  0  0  0  0  0  0  0  0  0  0  0
   39.8607  -41.7284    7.7151 O   0  0  0  0  0  0  0  0  0  0  0  0
   39.5784  -41.4840   10.0201 N   0  0  0  0  0  0  0  0  0  0  0  0
   39.5611  -42.8754   10.2432 C   0  0  0  0  0  0  0  0  0  0  0  0
   40.8436  -43.6075   10.0156 C   0  0  0  0  0  0  0  0  0  0  0  0
   40.8579  -44.9475   10.7298 C   0  0  0  0  0  0  0  0  0  0  0  0
   39.8517  -45.7971   10.1761 N   0  0  0  0  0  0  0  0  0  0  0  0
   39.9381  -46.4983    8.9440 C   0  0  0  0  0  0  0  0  0  0  0  0
   40.9713  -46.3035    8.0926 N   0  0  0  0  0  0  0  0  0  0  0  0
   41.1037  -46.9419    6.9228 C   0  0  0  0  0  0  0  0  0  0  0  0
   40.1423  -47.8653    6.5277 C   0  0  0  0  0  0  0  0  0  0  0  0
   39.0905  -48.0591    7.4012 C   0  0  0  0  0  0  0  0  0  0  0  0
   39.0101  -47.3877    8.5654 N   0  0  0  0  0  0  0  0  0  0  0  0
   40.1783  -37.5030    7.3423 C   0  0  0  0  0  0  0  0  0  0  0  0
   40.3172  -36.8096    6.1731 C   0  0  0  0  0  0  0  0  0  0  0  0
  1  2  1  0  0  0  0
  2  3  1  0  0  0  0
  3  4  2  0  0  0  0
  3  5  1  0  0  0  0
  5  6  2  0  0  0  0
  6  7  1  0  0  0  0
  7  8  2  0  0  0  0
  8  9  1  0  0  0  0
  8 23  1  0  0  0  0
  9 10  1  0  0  0  0
 10 11  2  0  0  0  0
 10 12  1  0  0  0  0
 12 13  1  0  0  0  0
 13 14  1  0  0  0  0
 14 15  1  0  0  0  0
 15 16  1  0  0  0  0
 16 17  1  0  0  0  0
 17 18  2  0  0  0  0
 18 19  1  0  0  0  0
 19 20  2  0  0  0  0
 20 21  1  0  0  0  0
 21 22  2  0  0  0  0
 22 17  1  0  0  0  0
 23 24  2  0  0  0  0
 24  5  1  0  0  0  0
M  END
>  <CHROM.1>
17.21323682,15.19038555,68.44035428,159.90721263,64.42672304,77.20247163
-7.07941548,40.07077711,-41.56946712,7.10806477,-0.84373838,-1.54738909,-2.87226569

>  <Name>
design_17

>  <RI>
0

>  <Rbt.Current_Directory>
/home/ziqiaoxu/icml18-jtnn/VAEdesign

>  <Rbt.Executable>
rbdock ($Id: //depot/dev/client3/rdock/2013.1/src/exe/rbdock.cxx#4 $)

>  <Rbt.Library>
libRbt.so (2013.1, Build901 2013/11/27)

>  <Rbt.Parameter_File>
/export/apps/rDock/src/rDock_2013.1_src//data/scripts/dock.prm

>  <Rbt.Receptor>
/home/ziqiaoxu/icml18-jtnn/VAEdesign/targets/RdRp-SARS-CoV-2/pocket_docking.prm

>  <SCORE>
-20.0597

>  <SCORE.INTER>
-21.5433

>  <SCORE.INTER.CONST>
1

>  <SCORE.INTER.POLAR>
-2.49549

>  <SCORE.INTER.REPUL>
0.115733

>  <SCORE.INTER.ROT>
7

>  <SCORE.INTER.VDW>
-26.0373

>  <SCORE.INTER.norm>
-0.897637

>  <SCORE.INTRA>
0.920792

>  <SCORE.INTRA.DIHEDRAL>
1.78749

>  <SCORE.INTRA.DIHEDRAL.0>
5.4088

>  <SCORE.INTRA.POLAR>
0

>  <SCORE.INTRA.POLAR.0>
0

>  <SCORE.INTRA.REPUL>
0

>  <SCORE.INTRA.REPUL.0>
0

>  <SCORE.INTRA.VDW>
0.0270454

>  <SCORE.INTRA.VDW.0>
-1.00115

>  <SCORE.INTRA.norm>
0.0383663

>  <SCORE.RESTR>
0.562737

>  <SCORE.RESTR.CAVITY>
0.562737

>  <SCORE.RESTR.norm>
0.0234474

>  <SCORE.SYSTEM>
0

>  <SCORE.SYSTEM.CONST>
0

>  <SCORE.SYSTEM.DIHEDRAL>
0

>  <SCORE.SYSTEM.norm>
0

>  <SCORE.heavy>
24

>  <SCORE.norm>
-0.835823

$$$$
design_5
 OpenBabel05252019093D

 23 26  0  0  0  0  0  0  0  0999 V2000
   39.0041  -48.6578    7.4454 C   0  0  0  0  0  0  0  0  0  0  0  0
   39.1675  -47.1442    7.6048 C   0  0  0  0  0  0  0  0  0  0  0  0
   38.9068  -46.6590    8.9824 C   0  0  0  0  0  0  0  0  0  0  0  0
   40.3728  -46.6312    6.9348 C   0  0  0  0  0  0  0  0  0  0  0  0
   41.5381  -46.4756    7.6420 N   0  0  0  0  0  0  0  0  0  0  0  0
   42.5061  -46.0263    6.8551 C   0  0  0  0  0  0  0  0  0  0  0  0
   43.8354  -45.7242    7.0962 C   0  0  0  0  0  0  0  0  0  0  0  0
   44.6655  -45.2674    6.0784 C   0  0  0  0  0  0  0  0  0  0  0  0
   44.1162  -45.1268    4.8216 C   0  0  0  0  0  0  0  0  0  0  0  0
   42.7921  -45.4320    4.6017 C   0  0  0  0  0  0  0  0  0  0  0  0
   41.9461  -45.8915    5.6154 C   0  0  0  0  0  0  0  0  0  0  0  0
   40.6561  -46.2626    5.6888 N   0  0  0  0  0  0  0  0  0  0  0  0
   39.7827  -46.2511    4.5507 C   0  0  0  0  0  0  0  0  0  0  0  0
   38.3893  -45.8007    4.9299 C   0  0  0  0  0  0  0  0  0  0  0  0
   37.3110  -46.6560    4.9000 C   0  0  0  0  0  0  0  0  0  0  0  0
   36.0411  -45.6376    5.4298 S   0  0  0  0  0  0  0  0  0  0  0  0
   36.9378  -44.2109    5.6546 C   0  0  0  0  0  0  0  0  0  0  0  0
   36.5133  -42.8681    6.1116 C   0  0  0  0  0  0  0  0  0  0  0  0
   37.3801  -41.8475    6.4289 C   0  0  0  0  0  0  0  0  0  0  0  0
   36.6013  -40.7934    6.7989 C   0  0  0  0  0  0  0  0  0  0  0  0
   35.2992  -41.2281    6.6875 C   0  0  0  0  0  0  0  0  0  0  0  0
   35.3020  -42.4697    6.2747 O   0  0  0  0  0  0  0  0  0  0  0  0
   38.1536  -44.5814    5.3160 N   0  0  0  0  0  0  0  0  0  0  0  0
  1  2  1  0  0  0  0
  2  3  1  0  0  0  0
  2  4  1  0  0  0  0
  4  5  2  0  0  0  0
  5  6  1  0  0  0  0
  6  7  2  0  0  0  0
  7  8  1  0  0  0  0
  8  9  2  0  0  0  0
  9 10  1  0  0  0  0
 10 11  2  0  0  0  0
 11 12  1  0  0  0  0
 11  6  1  0  0  0  0
 12 13  1  0  0  0  0
 12  4  1  0  0  0  0
 13 14  1  0  0  0  0
 14 15  2  0  0  0  0
 15 16  1  0  0  0  0
 16 17  1  0  0  0  0
 17 18  1  0  0  0  0
 17 23  2  0  0  0  0
 18 19  2  0  0  0  0
 19 20  1  0  0  0  0
 20 21  2  0  0  0  0
 21 22  1  0  0  0  0
 22 18  1  0  0  0  0
 23 14  1  0  0  0  0
M  END
>  <CHROM.1>
-94.57988812,38.67517478,-112.00401518,170.41145994,39.20684423,-45.16029187
6.17281164,0.42195769,-0.04567260,3.00901878

>  <Name>
design_5

>  <RI>
0

>  <Rbt.Current_Directory>
/home/ziqiaoxu/icml18-jtnn/VAEdesign

>  <Rbt.Executable>
rbdock ($Id: //depot/dev/client3/rdock/2013.1/src/exe/rbdock.cxx#4 $)

>  <Rbt.Library>
libRbt.so (2013.1, Build901 2013/11/27)

>  <Rbt.Parameter_File>
/export/apps/rDock/src/rDock_2013.1_src//data/scripts/dock.prm

>  <Rbt.Receptor>
/home/ziqiaoxu/icml18-jtnn/VAEdesign/targets/RdRp-SARS-CoV-2/pocket_docking.prm

>  <SCORE>
-16.985

>  <SCORE.INTER>
-16.6304

>  <SCORE.INTER.CONST>
1

>  <SCORE.INTER.POLAR>
0

>  <SCORE.INTER.REPUL>
0.00101422

>  <SCORE.INTER.ROT>
4

>  <SCORE.INTER.VDW>
-26.0355

>  <SCORE.INTER.norm>
-0.72306

>  <SCORE.INTRA>
-0.354583

>  <SCORE.INTRA.DIHEDRAL>
-0.736927

>  <SCORE.INTRA.DIHEDRAL.0>
4.85035

>  <SCORE.INTRA.POLAR>
0

>  <SCORE.INTRA.POLAR.0>
0

>  <SCORE.INTRA.REPUL>
0

>  <SCORE.INTRA.REPUL.0>
0

>  <SCORE.INTRA.VDW>
0.0138806

>  <SCORE.INTRA.VDW.0>
-3.08599

>  <SCORE.INTRA.norm>
-0.0154167

>  <SCORE.RESTR>
0

>  <SCORE.RESTR.CAVITY>
0

>  <SCORE.RESTR.norm>
0

>  <SCORE.SYSTEM>
0

>  <SCORE.SYSTEM.CONST>
0

>  <SCORE.SYSTEM.DIHEDRAL>
0

>  <SCORE.SYSTEM.norm>
0

>  <SCORE.heavy>
23

>  <SCORE.norm>
-0.738477

$$$$
design_11
 OpenBabel05252019093D

 23 25  0  0  0  0  0  0  0  0999 V2000
   38.7288  -48.8300    6.9320 C   0  0  0  0  0  0  0  0  0  0  0  0
   39.5374  -47.7901    7.6392 C   0  0  0  0  0  0  0  0  0  0  0  0
   39.1502  -47.2620    8.8519 C   0  0  0  0  0  0  0  0  0  0  0  0
   39.9020  -46.3031    9.4974 C   0  0  0  0  0  0  0  0  0  0  0  0
   41.0993  -45.8146    8.9546 C   0  0  0  0  0  0  0  0  0  0  0  0
   41.8549  -44.7691    9.6730 C   0  0  0  0  0  0  0  0  0  0  0  0
   43.2229  -44.5921    9.2267 N   0  0  0  0  0  0  0  0  0  0  0  0
   43.6650  -44.7578    7.9655 N   0  0  0  0  0  0  0  0  0  0  0  0
   44.9803  -44.5358    7.8733 C   0  0  0  0  0  0  0  0  0  0  0  0
   45.8329  -44.6142    6.6762 C   0  0  0  0  0  0  0  0  0  0  0  0
   45.4315  -45.2279    5.5243 C   0  0  0  0  0  0  0  0  0  0  0  0
   46.2523  -45.2874    4.4144 C   0  0  0  0  0  0  0  0  0  0  0  0
   47.4913  -44.7147    4.4854 C   0  0  0  0  0  0  0  0  0  0  0  0
   47.8907  -44.1022    5.6368 C   0  0  0  0  0  0  0  0  0  0  0  0
   47.0551  -44.0734    6.6832 N   0  0  0  0  0  0  0  0  0  0  0  0
   45.3718  -44.2213    9.1165 N   0  0  0  0  0  0  0  0  0  0  0  0
   44.2903  -44.2533    9.9602 C   0  0  0  0  0  0  0  0  0  0  0  0
   44.4499  -43.9315   11.3772 C   0  0  0  0  0  0  0  0  0  0  0  0
   44.9883  -45.0058   12.2505 C   0  0  0  0  0  0  0  0  0  0  0  0
   46.4359  -45.2584   11.8219 C   0  0  0  0  0  0  0  0  0  0  0  0
   45.0140  -44.6095   13.7172 C   0  0  0  0  0  0  0  0  0  0  0  0
   41.4638  -46.3562    7.7458 C   0  0  0  0  0  0  0  0  0  0  0  0
   40.7129  -47.3151    7.0995 C   0  0  0  0  0  0  0  0  0  0  0  0
  1  2  1  0  0  0  0
  2  3  2  0  0  0  0
  3  4  1  0  0  0  0
  4  5  2  0  0  0  0
  5  6  1  0  0  0  0
  5 22  1  0  0  0  0
  6  7  1  0  0  0  0
  7  8  1  0  0  0  0
  8  9  2  0  0  0  0
  9 10  1  0  0  0  0
  9 16  1  0  0  0  0
 10 11  2  0  0  0  0
 11 12  1  0  0  0  0
 12 13  2  0  0  0  0
 13 14  1  0  0  0  0
 14 15  2  0  0  0  0
 15 10  1  0  0  0  0
 16 17  2  0  0  0  0
 17 18  1  0  0  0  0
 17  7  1  0  0  0  0
 18 19  1  0  0  0  0
 19 20  1  0  0  0  0
 19 21  1  0  0  0  0
 22 23  2  0  0  0  0
 23  2  1  0  0  0  0
M  END
>  <CHROM.1>
164.37793756,32.87391596,-15.36109519,100.89560529,66.61255576,43.70213774
-45.37234046,8.45952792,3.05034205,0.39892081,1.41472242

>  <Name>
design_11

>  <RI>
0

>  <Rbt.Current_Directory>
/home/ziqiaoxu/icml18-jtnn/VAEdesign

>  <Rbt.Executable>
rbdock ($Id: //depot/dev/client3/rdock/2013.1/src/exe/rbdock.cxx#4 $)

>  <Rbt.Library>
libRbt.so (2013.1, Build901 2013/11/27)

>  <Rbt.Parameter_File>
/export/apps/rDock/src/rDock_2013.1_src//data/scripts/dock.prm

>  <Rbt.Receptor>
/home/ziqiaoxu/icml18-jtnn/VAEdesign/targets/RdRp-SARS-CoV-2/pocket_docking.prm

>  <SCORE>
-13.6075

>  <SCORE.INTER>
-15.635

>  <SCORE.INTER.CONST>
1

>  <SCORE.INTER.POLAR>
0

>  <SCORE.INTER.REPUL>
0

>  <SCORE.INTER.ROT>
5

>  <SCORE.INTER.VDW>
-26.035

>  <SCORE.INTER.norm>
-0.679782

>  <SCORE.INTRA>
2.02751

>  <SCORE.INTRA.DIHEDRAL>
1.14399

>  <SCORE.INTRA.DIHEDRAL.0>
4.38118

>  <SCORE.INTRA.POLAR>
0

>  <SCORE.INTRA.POLAR.0>
0

>  <SCORE.INTRA.REPUL>
0

>  <SCORE.INTRA.REPUL.0>
0

>  <SCORE.INTRA.VDW>
1.45551

>  <SCORE.INTRA.VDW.0>
-2.44569

>  <SCORE.INTRA.norm>
0.0881526

>  <SCORE.RESTR>
0

>  <SCORE.RESTR.CAVITY>
0

>  <SCORE.RESTR.norm>
0

>  <SCORE.SYSTEM>
0

>  <SCORE.SYSTEM.CONST>
0

>  <SCORE.SYSTEM.DIHEDRAL>
0

>  <SCORE.SYSTEM.norm>
0

>  <SCORE.heavy>
23

>  <SCORE.norm>
-0.59163

$$$$
design_7
 OpenBabel05252019093D

 25 27  0  0  0  0  0  0  0  0999 V2000
   40.9545  -44.1448   10.4417 C   0  0  0  0  0  0  0  0  0  0  0  0
   40.5303  -45.2271    9.5254 C   0  0  0  0  0  0  0  0  0  0  0  0
   39.5541  -46.1542    9.7419 N   0  0  0  0  0  0  0  0  0  0  0  0
   39.4772  -46.9611    8.6677 C   0  0  0  0  0  0  0  0  0  0  0  0
   38.6802  -48.0429    8.3616 C   0  0  0  0  0  0  0  0  0  0  0  0
   38.8457  -48.6755    7.1503 C   0  0  0  0  0  0  0  0  0  0  0  0
   39.7868  -48.2603    6.2301 C   0  0  0  0  0  0  0  0  0  0  0  0
   40.5839  -47.1913    6.5173 C   0  0  0  0  0  0  0  0  0  0  0  0
   40.4097  -46.5646    7.7337 C   0  0  0  0  0  0  0  0  0  0  0  0
   41.0618  -45.4816    8.2785 C   0  0  0  0  0  0  0  0  0  0  0  0
   42.1366  -44.7207    7.6538 C   0  0  0  0  0  0  0  0  0  0  0  0
   41.9047  -43.7002    6.9552 O   0  0  0  0  0  0  0  0  0  0  0  0
   43.5549  -45.1278    7.8224 C   0  0  0  0  0  0  0  0  0  0  0  0
   44.3270  -44.9505    6.6335 N   0  0  0  0  0  0  0  0  0  0  0  0
   45.5908  -44.2234    6.6012 C   0  0  0  0  0  0  0  0  0  0  0  0
   43.8651  -45.4980    5.4104 C   0  0  0  0  0  0  0  0  0  0  0  0
   42.7856  -46.1276    5.4003 O   0  0  0  0  0  0  0  0  0  0  0  0
   44.6170  -45.3521    4.1348 C   0  0  0  0  0  0  0  0  0  0  0  0
   43.7476  -45.4956    3.0288 O   0  0  0  0  0  0  0  0  0  0  0  0
   44.3017  -45.8264    1.8009 C   0  0  0  0  0  0  0  0  0  0  0  0
   45.6386  -46.1307    1.6399 C   0  0  0  0  0  0  0  0  0  0  0  0
   46.1779  -46.4589    0.4092 C   0  0  0  0  0  0  0  0  0  0  0  0
   45.3761  -46.4916   -0.7151 C   0  0  0  0  0  0  0  0  0  0  0  0
   44.0297  -46.1907   -0.5844 C   0  0  0  0  0  0  0  0  0  0  0  0
   43.5075  -45.8629    0.6641 C   0  0  0  0  0  0  0  0  0  0  0  0
  1  2  1  0  0  0  0
  2  3  1  0  0  0  0
  3  4  1  0  0  0  0
  4  5  2  0  0  0  0
  5  6  1  0  0  0  0
  6  7  2  0  0  0  0
  7  8  1  0  0  0  0
  8  9  2  0  0  0  0
  9 10  1  0  0  0  0
  9  4  1  0  0  0  0
 10 11  1  0  0  0  0
 10  2  2  0  0  0  0
 11 12  2  0  0  0  0
 11 13  1  0  0  0  0
 13 14  1  0  0  0  0
 14 15  1  0  0  0  0
 14 16  1  0  0  0  0
 16 17  2  0  0  0  0
 16 18  1  0  0  0  0
 18 19  1  0  0  0  0
 19 20  1  0  0  0  0
 20 21  2  0  0  0  0
 21 22  1  0  0  0  0
 22 23  2  0  0  0  0
 23 24  1  0  0  0  0
 24 25  2  0  0  0  0
 25 20  1  0  0  0  0
M  END
>  <CHROM.1>
-88.26729268,141.71780916,128.11828539,-156.84568521,-159.20783972,5.68050130
42.48955165,-45.90897840,5.60614023,-2.25396160,-0.59772536,-1.97830232

>  <Name>
design_7

>  <RI>
0

>  <Rbt.Current_Directory>
/home/ziqiaoxu/icml18-jtnn/VAEdesign

>  <Rbt.Executable>
rbdock ($Id: //depot/dev/client3/rdock/2013.1/src/exe/rbdock.cxx#4 $)

>  <Rbt.Library>
libRbt.so (2013.1, Build901 2013/11/27)

>  <Rbt.Parameter_File>
/export/apps/rDock/src/rDock_2013.1_src//data/scripts/dock.prm

>  <Rbt.Receptor>
/home/ziqiaoxu/icml18-jtnn/VAEdesign/targets/RdRp-SARS-CoV-2/pocket_docking.prm

>  <SCORE>
-17.4324

>  <SCORE.INTER>
-17.9852

>  <SCORE.INTER.CONST>
1

>  <SCORE.INTER.POLAR>
-0.986258

>  <SCORE.INTER.REPUL>
0

>  <SCORE.INTER.ROT>
6

>  <SCORE.INTER.VDW>
-26.032

>  <SCORE.INTER.norm>
-0.71941

>  <SCORE.INTRA>
0.552879

>  <SCORE.INTRA.DIHEDRAL>
0.405133

>  <SCORE.INTRA.DIHEDRAL.0>
16.368

>  <SCORE.INTRA.POLAR>
0

>  <SCORE.INTRA.POLAR.0>
0

>  <SCORE.INTRA.REPUL>
0

>  <SCORE.INTRA.REPUL.0>
0

>  <SCORE.INTRA.VDW>
0.350312

>  <SCORE.INTRA.VDW.0>
-0.563384

>  <SCORE.INTRA.norm>
0.0221151

>  <SCORE.RESTR>
0

>  <SCORE.RESTR.CAVITY>
0

>  <SCORE.RESTR.norm>
0

>  <SCORE.SYSTEM>
0

>  <SCORE.SYSTEM.CONST>
0

>  <SCORE.SYSTEM.DIHEDRAL>
0

>  <SCORE.SYSTEM.norm>
0

>  <SCORE.heavy>
25

>  <SCORE.norm>
-0.697295

$$$$
design_13
 OpenBabel05252019093D

 25 27  0  0  0  0  0  0  0  0999 V2000
   39.6527  -42.0498   11.0786 N   0  0  0  0  0  0  0  0  0  0  0  0
   39.7067  -41.3647   10.1507 C   0  0  0  0  0  0  0  0  0  0  0  0
   39.7535  -40.4967    8.9880 C   0  0  0  0  0  0  0  0  0  0  0  0
   40.6273  -39.4389    8.9086 C   0  0  0  0  0  0  0  0  0  0  0  0
   40.6476  -38.6360    7.7968 C   0  0  0  0  0  0  0  0  0  0  0  0
   39.7913  -38.8534    6.7064 C   0  0  0  0  0  0  0  0  0  0  0  0
   39.9204  -37.9520    5.5620 C   0  0  0  0  0  0  0  0  0  0  0  0
   39.8964  -38.5528    4.2135 C   0  0  0  0  0  0  0  0  0  0  0  0
   41.1268  -38.5082    3.4233 C   0  0  0  0  0  0  0  0  0  0  0  0
   42.1631  -37.8508    3.6926 O   0  0  0  0  0  0  0  0  0  0  0  0
   41.1944  -39.2883    2.1988 N   0  0  0  0  0  0  0  0  0  0  0  0
   42.3596  -39.2994    1.3683 C   0  0  0  0  0  0  0  0  0  0  0  0
   42.7909  -40.6833    1.0172 C   0  0  0  0  0  0  0  0  0  0  0  0
   41.9618  -41.7599    1.2455 C   0  0  0  0  0  0  0  0  0  0  0  0
   42.3456  -43.0432    0.9236 C   0  0  0  0  0  0  0  0  0  0  0  0
   43.5919  -43.2515    0.3583 C   0  0  0  0  0  0  0  0  0  0  0  0
   44.0550  -44.5520   -0.0011 N   0  0  0  0  0  0  0  0  0  0  0  0
   45.2797  -44.8555   -0.4334 C   0  0  0  0  0  0  0  0  0  0  0  0
   45.3122  -46.1781   -0.6620 N   0  0  0  0  0  0  0  0  0  0  0  0
   44.0977  -46.6594   -0.3624 C   0  0  0  0  0  0  0  0  0  0  0  0
   43.3126  -45.6375    0.0515 N   0  0  0  0  0  0  0  0  0  0  0  0
   44.4499  -42.1998    0.1144 C   0  0  0  0  0  0  0  0  0  0  0  0
   44.0279  -40.9321    0.4511 C   0  0  0  0  0  0  0  0  0  0  0  0
   38.9362  -39.9165    6.8218 C   0  0  0  0  0  0  0  0  0  0  0  0
   38.9191  -40.7183    7.9384 C   0  0  0  0  0  0  0  0  0  0  0  0
  1  2  3  0  0  0  0
  2  3  1  0  0  0  0
  3  4  2  0  0  0  0
  4  5  1  0  0  0  0
  5  6  2  0  0  0  0
  6  7  1  0  0  0  0
  6 24  1  0  0  0  0
  7  8  1  0  0  0  0
  8  9  1  0  0  0  0
  9 10  2  0  0  0  0
  9 11  1  0  0  0  0
 11 12  1  0  0  0  0
 12 13  1  0  0  0  0
 13 14  2  0  0  0  0
 14 15  1  0  0  0  0
 15 16  2  0  0  0  0
 16 17  1  0  0  0  0
 16 22  1  0  0  0  0
 17 18  1  0  0  0  0
 18 19  2  0  0  0  0
 19 20  1  0  0  0  0
 20 21  2  0  0  0  0
 21 17  1  0  0  0  0
 22 23  2  0  0  0  0
 23 13  1  0  0  0  0
 24 25  2  0  0  0  0
 25  3  1  0  0  0  0
M  END
>  <CHROM.1>
136.38661928,-112.47015435,-10.44077870,130.42464347,13.05152015,-173.44096614
41.85105909,-41.29450330,3.61422130,-3.08094851,1.14110268,-0.56336997

>  <Name>
design_13

>  <RI>
0

>  <Rbt.Current_Directory>
/home/ziqiaoxu/icml18-jtnn/VAEdesign

>  <Rbt.Executable>
rbdock ($Id: //depot/dev/client3/rdock/2013.1/src/exe/rbdock.cxx#4 $)

>  <Rbt.Library>
libRbt.so (2013.1, Build901 2013/11/27)

>  <Rbt.Parameter_File>
/export/apps/rDock/src/rDock_2013.1_src//data/scripts/dock.prm

>  <Rbt.Receptor>
/home/ziqiaoxu/icml18-jtnn/VAEdesign/targets/RdRp-SARS-CoV-2/pocket_docking.prm

>  <SCORE>
-21.1623

>  <SCORE.INTER>
-19.7823

>  <SCORE.INTER.CONST>
1

>  <SCORE.INTER.POLAR>
-1.51527

>  <SCORE.INTER.REPUL>
0

>  <SCORE.INTER.ROT>
6

>  <SCORE.INTER.VDW>
-26.0304

>  <SCORE.INTER.norm>
-0.791293

>  <SCORE.INTRA>
-1.38

>  <SCORE.INTRA.DIHEDRAL>
-7.11366

>  <SCORE.INTRA.DIHEDRAL.0>
16.4255

>  <SCORE.INTRA.POLAR>
0

>  <SCORE.INTRA.POLAR.0>
0

>  <SCORE.INTRA.REPUL>
0

>  <SCORE.INTRA.REPUL.0>
0

>  <SCORE.INTRA.VDW>
2.17682

>  <SCORE.INTRA.VDW.0>
-2.05617

>  <SCORE.INTRA.norm>
-0.0552001

>  <SCORE.RESTR>
0

>  <SCORE.RESTR.CAVITY>
0

>  <SCORE.RESTR.norm>
0

>  <SCORE.SYSTEM>
0

>  <SCORE.SYSTEM.CONST>
0

>  <SCORE.SYSTEM.DIHEDRAL>
0

>  <SCORE.SYSTEM.norm>
0

>  <SCORE.heavy>
25

>  <SCORE.norm>
-0.846493

$$$$
design_15
 OpenBabel05252019093D

 25 27  0  0  0  0  0  0  0  0999 V2000
   49.7609  -47.5022    2.8751 C   0  0  0  0  0  0  0  0  0  0  0  0
   48.5131  -47.8614    2.3513 O   0  0  0  0  0  0  0  0  0  0  0  0
   47.3988  -47.0690    2.5892 C   0  0  0  0  0  0  0  0  0  0  0  0
   46.5689  -46.6647    1.5731 C   0  0  0  0  0  0  0  0  0  0  0  0
   45.4542  -45.8747    1.7898 C   0  0  0  0  0  0  0  0  0  0  0  0
   45.2091  -45.5113    3.0560 N   0  0  0  0  0  0  0  0  0  0  0  0
   45.9773  -45.8696    4.0997 C   0  0  0  0  0  0  0  0  0  0  0  0
   45.6885  -45.4605    5.4399 N   0  0  0  0  0  0  0  0  0  0  0  0
   45.1145  -44.1982    5.6626 C   0  0  0  0  0  0  0  0  0  0  0  0
   44.8696  -43.4519    4.6794 O   0  0  0  0  0  0  0  0  0  0  0  0
   44.7875  -43.7010    7.0019 C   0  0  0  0  0  0  0  0  0  0  0  0
   44.6121  -44.6758    8.0194 N   0  0  0  0  0  0  0  0  0  0  0  0
   44.0933  -44.1924    9.2726 C   0  0  0  0  0  0  0  0  0  0  0  0
   42.7094  -44.7309    9.4293 C   0  0  0  0  0  0  0  0  0  0  0  0
   42.1190  -45.6031    8.6461 N   0  0  0  0  0  0  0  0  0  0  0  0
   40.9076  -45.9944    8.8969 C   0  0  0  0  0  0  0  0  0  0  0  0
   40.2136  -46.9854    8.0201 C   0  0  0  0  0  0  0  0  0  0  0  0
   39.1251  -47.6801    8.4751 C   0  0  0  0  0  0  0  0  0  0  0  0
   38.4569  -48.6013    7.6970 C   0  0  0  0  0  0  0  0  0  0  0  0
   38.8838  -48.8448    6.4157 C   0  0  0  0  0  0  0  0  0  0  0  0
   39.9909  -48.1432    5.9427 C   0  0  0  0  0  0  0  0  0  0  0  0
   40.6414  -47.2292    6.7373 C   0  0  0  0  0  0  0  0  0  0  0  0
   40.2882  -45.4598   10.0013 C   0  0  0  0  0  0  0  0  0  0  0  0
   41.5149  -44.4202   10.6019 S   0  0  0  0  0  0  0  0  0  0  0  0
   47.0945  -46.6631    3.8710 C   0  0  0  0  0  0  0  0  0  0  0  0
  1  2  1  0  0  0  0
  2  3  1  0  0  0  0
  3  4  2  0  0  0  0
  4  5  1  0  0  0  0
  5  6  2  0  0  0  0
  6  7  1  0  0  0  0
  7  8  1  0  0  0  0
  7 25  2  0  0  0  0
  8  9  1  0  0  0  0
  9 10  2  0  0  0  0
  9 11  1  0  0  0  0
 11 12  1  0  0  0  0
 12 13  1  0  0  0  0
 13 14  1  0  0  0  0
 14 15  2  0  0  0  0
 15 16  1  0  0  0  0
 16 17  1  0  0  0  0
 16 23  2  0  0  0  0
 17 18  2  0  0  0  0
 18 19  1  0  0  0  0
 19 20  2  0  0  0  0
 20 21  1  0  0  0  0
 21 22  2  0  0  0  0
 22 17  1  0  0  0  0
 23 24  1  0  0  0  0
 24 14  1  0  0  0  0
 25  3  1  0  0  0  0
M  END
>  <CHROM.1>
130.25669506,-33.95655080,-22.09359099,-170.82142803,110.79610005,6.78907567
160.90693246,43.59860000,-45.98733986,6.31773934,-0.57612342,0.46366110,0.92779109

>  <Name>
design_15

>  <RI>
0

>  <Rbt.Current_Directory>
/home/ziqiaoxu/icml18-jtnn/VAEdesign

>  <Rbt.Executable>
rbdock ($Id: //depot/dev/client3/rdock/2013.1/src/exe/rbdock.cxx#4 $)

>  <Rbt.Library>
libRbt.so (2013.1, Build901 2013/11/27)

>  <Rbt.Parameter_File>
/export/apps/rDock/src/rDock_2013.1_src//data/scripts/dock.prm

>  <Rbt.Receptor>
/home/ziqiaoxu/icml18-jtnn/VAEdesign/targets/RdRp-SARS-CoV-2/pocket_docking.prm

>  <SCORE>
-16.8502

>  <SCORE.INTER>
-19.3403

>  <SCORE.INTER.CONST>
1

>  <SCORE.INTER.POLAR>
-1.74829

>  <SCORE.INTER.REPUL>
0.0467408

>  <SCORE.INTER.ROT>
7

>  <SCORE.INTER.VDW>
-26.0298

>  <SCORE.INTER.norm>
-0.773611

>  <SCORE.INTRA>
2.4901

>  <SCORE.INTRA.DIHEDRAL>
10.3023

>  <SCORE.INTRA.DIHEDRAL.0>
2.94154

>  <SCORE.INTRA.POLAR>
0

>  <SCORE.INTRA.POLAR.0>
0

>  <SCORE.INTRA.REPUL>
0

>  <SCORE.INTRA.REPUL.0>
0

>  <SCORE.INTRA.VDW>
-2.66106

>  <SCORE.INTRA.VDW.0>
2.04418

>  <SCORE.INTRA.norm>
0.0996041

>  <SCORE.RESTR>
0

>  <SCORE.RESTR.CAVITY>
0

>  <SCORE.RESTR.norm>
0

>  <SCORE.SYSTEM>
0

>  <SCORE.SYSTEM.CONST>
0

>  <SCORE.SYSTEM.DIHEDRAL>
0

>  <SCORE.SYSTEM.norm>
0

>  <SCORE.heavy>
25

>  <SCORE.norm>
-0.674006

$$$$
design_10
 OpenBabel05252019093D

 21 22  0  0  0  0  0  0  0  0999 V2000
   36.0898  -42.3870    5.8338 C   0  0  0  0  0  0  0  0  0  0  0  0
   36.6467  -43.7609    5.8103 C   0  0  0  0  0  0  0  0  0  0  0  0
   35.8274  -44.8347    5.5823 C   0  0  0  0  0  0  0  0  0  0  0  0
   36.3520  -46.0885    5.5633 C   0  0  0  0  0  0  0  0  0  0  0  0
   37.7179  -46.2988    5.7735 C   0  0  0  0  0  0  0  0  0  0  0  0
   38.1974  -47.6102    5.7545 N   0  0  0  0  0  0  0  0  0  0  0  0
   39.8303  -48.0086    6.0513 S   0  0  0  0  0  0  0  0  0  0  0  0
   40.5772  -47.9808    4.7381 O   0  0  0  0  0  0  0  0  0  0  0  0
   39.9725  -49.4416    6.5473 O   0  0  0  0  0  0  0  0  0  0  0  0
   40.6457  -46.9328    7.1488 C   0  0  0  0  0  0  0  0  0  0  0  0
   41.9063  -46.4045    6.8253 C   0  0  0  0  0  0  0  0  0  0  0  0
   42.5960  -45.5419    7.6408 C   0  0  0  0  0  0  0  0  0  0  0  0
   43.9076  -45.0453    7.2127 C   0  0  0  0  0  0  0  0  0  0  0  0
   41.9924  -45.1993    8.8266 C   0  0  0  0  0  0  0  0  0  0  0  0
   42.7194  -44.2689    9.7225 C   0  0  0  0  0  0  0  0  0  0  0  0
   40.7668  -45.6996    9.1646 C   0  0  0  0  0  0  0  0  0  0  0  0
   40.0560  -46.5826    8.3347 C   0  0  0  0  0  0  0  0  0  0  0  0
   38.7348  -47.0935    8.7775 C   0  0  0  0  0  0  0  0  0  0  0  0
   38.5505  -45.2287    6.0036 C   0  0  0  0  0  0  0  0  0  0  0  0
   37.9943  -43.9597    6.0184 C   0  0  0  0  0  0  0  0  0  0  0  0
   38.8377  -42.7690    6.2603 C   0  0  0  0  0  0  0  0  0  0  0  0
  1  2  1  0  0  0  0
  2  3  2  0  0  0  0
  3  4  1  0  0  0  0
  4  5  2  0  0  0  0
  5  6  1  0  0  0  0
  5 19  1  0  0  0  0
  6  7  1  0  0  0  0
  7  8  2  0  0  0  0
  7  9  2  0  0  0  0
  7 10  1  0  0  0  0
 10 11  2  0  0  0  0
 11 12  1  0  0  0  0
 12 13  1  0  0  0  0
 12 14  2  0  0  0  0
 14 15  1  0  0  0  0
 14 16  1  0  0  0  0
 16 17  2  0  0  0  0
 17 18  1  0  0  0  0
 17 10  1  0  0  0  0
 19 20  2  0  0  0  0
 20 21  1  0  0  0  0
 20  2  1  0  0  0  0
M  END
>  <CHROM.1>
-177.77230012,-89.36129058,-131.60059673,39.55786843,-45.94012496,6.77542647
-2.97385390,0.44024620,-2.87305147

>  <Name>
design_10

>  <RI>
0

>  <Rbt.Current_Directory>
/home/ziqiaoxu/icml18-jtnn/VAEdesign

>  <Rbt.Executable>
rbdock ($Id: //depot/dev/client3/rdock/2013.1/src/exe/rbdock.cxx#4 $)

>  <Rbt.Library>
libRbt.so (2013.1, Build901 2013/11/27)

>  <Rbt.Parameter_File>
/export/apps/rDock/src/rDock_2013.1_src//data/scripts/dock.prm

>  <Rbt.Receptor>
/home/ziqiaoxu/icml18-jtnn/VAEdesign/targets/RdRp-SARS-CoV-2/pocket_docking.prm

>  <SCORE>
-20.9146

>  <SCORE.INTER>
-17.6298

>  <SCORE.INTER.CONST>
1

>  <SCORE.INTER.POLAR>
0

>  <SCORE.INTER.REPUL>
0

>  <SCORE.INTER.ROT>
3

>  <SCORE.INTER.VDW>
-26.0298

>  <SCORE.INTER.norm>
-0.839513

>  <SCORE.INTRA>
-3.2848

>  <SCORE.INTRA.DIHEDRAL>
-6.24644

>  <SCORE.INTRA.DIHEDRAL.0>
8.67391

>  <SCORE.INTRA.POLAR>
0

>  <SCORE.INTRA.POLAR.0>
0

>  <SCORE.INTRA.REPUL>
0

>  <SCORE.INTRA.REPUL.0>
0

>  <SCORE.INTRA.VDW>
-0.161578

>  <SCORE.INTRA.VDW.0>
-2.23565

>  <SCORE.INTRA.norm>
-0.156419

>  <SCORE.RESTR>
0

>  <SCORE.RESTR.CAVITY>
0

>  <SCORE.RESTR.norm>
0

>  <SCORE.SYSTEM>
0

>  <SCORE.SYSTEM.CONST>
0

>  <SCORE.SYSTEM.DIHEDRAL>
0

>  <SCORE.SYSTEM.norm>
0

>  <SCORE.heavy>
21

>  <SCORE.norm>
-0.995932

$$$$
design_17
 OpenBabel05252019093D

 28 31  0  0  0  0  0  0  0  0999 V2000
   38.5721  -48.8992    6.6532 C   0  0  0  0  0  0  0  0  0  0  0  0
   39.0801  -47.9129    7.6312 C   0  0  0  0  0  0  0  0  0  0  0  0
   38.3482  -47.4151    8.6490 N   0  0  0  0  0  0  0  0  0  0  0  0
   39.0891  -46.5391    9.3169 N   0  0  0  0  0  0  0  0  0  0  0  0
   40.3007  -46.4540    8.7524 C   0  0  0  0  0  0  0  0  0  0  0  0
   41.3996  -45.5763    9.1237 C   0  0  0  0  0  0  0  0  0  0  0  0
   41.3897  -44.8553   10.3012 C   0  0  0  0  0  0  0  0  0  0  0  0
   42.4795  -44.0842   10.6456 C   0  0  0  0  0  0  0  0  0  0  0  0
   43.5726  -44.0424    9.8038 C   0  0  0  0  0  0  0  0  0  0  0  0
   43.6125  -44.7543    8.6155 C   0  0  0  0  0  0  0  0  0  0  0  0
   44.8663  -44.6685    7.8087 C   0  0  0  0  0  0  0  0  0  0  0  0
   44.7249  -45.3197    6.5619 N   0  0  0  0  0  0  0  0  0  0  0  0
   44.0966  -44.7210    5.4412 C   0  0  0  0  0  0  0  0  0  0  0  0
   43.6434  -43.5652    5.5715 O   0  0  0  0  0  0  0  0  0  0  0  0
   43.9859  -45.4612    4.1520 C   0  0  0  0  0  0  0  0  0  0  0  0
   45.2407  -45.8045    3.5716 N   0  0  0  0  0  0  0  0  0  0  0  0
   46.3658  -45.8914    4.3446 C   0  0  0  0  0  0  0  0  0  0  0  0
   47.6029  -46.2039    3.8662 C   0  0  0  0  0  0  0  0  0  0  0  0
   47.7479  -46.4492    2.5305 C   0  0  0  0  0  0  0  0  0  0  0  0
   48.8909  -46.7425    2.0535 O   0  0  0  0  0  0  0  0  0  0  0  0
   46.6220  -46.3676    1.7254 C   0  0  0  0  0  0  0  0  0  0  0  0
   46.8091  -46.6237    0.3853 C   0  0  0  0  0  0  0  0  0  0  0  0
   45.7188  -46.5537   -0.4417 C   0  0  0  0  0  0  0  0  0  0  0  0
   44.4708  -46.2395    0.0386 C   0  0  0  0  0  0  0  0  0  0  0  0
   44.2911  -45.9828    1.3973 C   0  0  0  0  0  0  0  0  0  0  0  0
   45.3683  -46.0425    2.2646 C   0  0  0  0  0  0  0  0  0  0  0  0
   42.5221  -45.5120    8.2909 C   0  0  0  0  0  0  0  0  0  0  0  0
   40.2735  -47.3086    7.7183 N   0  0  0  0  0  0  0  0  0  0  0  0
  1  2  1  0  0  0  0
  2  3  2  0  0  0  0
  3  4  1  0  0  0  0
  4  5  1  0  0  0  0
  5  6  1  0  0  0  0
  5 28  2  0  0  0  0
  6  7  2  0  0  0  0
  7  8  1  0  0  0  0
  8  9  2  0  0  0  0
  9 10  1  0  0  0  0
 10 11  1  0  0  0  0
 10 27  2  0  0  0  0
 11 12  1  0  0  0  0
 12 13  1  0  0  0  0
 13 14  2  0  0  0  0
 13 15  1  0  0  0  0
 15 16  1  0  0  0  0
 16 17  1  0  0  0  0
 17 18  2  0  0  0  0
 18 19  1  0  0  0  0
 19 20  2  0  0  0  0
 19 21  1  0  0  0  0
 21 22  2  0  0  0  0
 22 23  1  0  0  0  0
 23 24  2  0  0  0  0
 24 25  1  0  0  0  0
 25 26  2  0  0  0  0
 26 16  1  0  0  0  0
 26 21  1  0  0  0  0
 27  6  1  0  0  0  0
 28  2  1  0  0  0  0
M  END
>  <CHROM.1>
11.68295420,-173.75145928,81.06370065,-61.46258965,22.64103081,43.59501574
-45.93348836,5.61008091,2.33730606,0.40465049,1.19797666

>  <Name>
design_17

>  <RI>
0

>  <Rbt.Current_Directory>
/home/ziqiaoxu/icml18-jtnn/VAEdesign

>  <Rbt.Executable>
rbdock ($Id: //depot/dev/client3/rdock/2013.1/src/exe/rbdock.cxx#4 $)

>  <Rbt.Library>
libRbt.so (2013.1, Build901 2013/11/27)

>  <Rbt.Parameter_File>
/export/apps/rDock/src/rDock_2013.1_src//data/scripts/dock.prm

>  <Rbt.Receptor>
/home/ziqiaoxu/icml18-jtnn/VAEdesign/targets/RdRp-SARS-CoV-2/pocket_docking.prm

>  <SCORE>
-20.7956

>  <SCORE.INTER>
-22.0439

>  <SCORE.INTER.CONST>
1

>  <SCORE.INTER.POLAR>
-1.88664

>  <SCORE.INTER.REPUL>
0

>  <SCORE.INTER.ROT>
5

>  <SCORE.INTER.VDW>
-26.0293

>  <SCORE.INTER.norm>
-0.787281

>  <SCORE.INTRA>
1.24828

>  <SCORE.INTRA.DIHEDRAL>
-0.217304

>  <SCORE.INTRA.DIHEDRAL.0>
6.14175

>  <SCORE.INTRA.POLAR>
0

>  <SCORE.INTRA.POLAR.0>
0

>  <SCORE.INTRA.REPUL>
0

>  <SCORE.INTRA.REPUL.0>
0

>  <SCORE.INTRA.VDW>
1.35694

>  <SCORE.INTRA.VDW.0>
-2.18248

>  <SCORE.INTRA.norm>
0.0445816

>  <SCORE.RESTR>
0

>  <SCORE.RESTR.CAVITY>
0

>  <SCORE.RESTR.norm>
0

>  <SCORE.SYSTEM>
0

>  <SCORE.SYSTEM.CONST>
0

>  <SCORE.SYSTEM.DIHEDRAL>
0

>  <SCORE.SYSTEM.norm>
0

>  <SCORE.heavy>
28

>  <SCORE.norm>
-0.7427

$$$$
design_13
 OpenBabel05252019093D

 21 22  0  0  0  0  0  0  0  0999 V2000
   35.1424  -40.2010    5.9132 C   0  0  0  0  0  0  0  0  0  0  0  0
   36.0691  -41.3950    6.0835 C   0  0  0  0  0  0  0  0  0  0  0  0
   37.1966  -41.0998    6.5378 O   0  0  0  0  0  0  0  0  0  0  0  0
   35.6051  -42.6518    5.7360 N   0  0  0  0  0  0  0  0  0  0  0  0
   36.3058  -43.8656    5.8193 C   0  0  0  0  0  0  0  0  0  0  0  0
   37.6324  -43.8854    6.2797 C   0  0  0  0  0  0  0  0  0  0  0  0
   38.3861  -45.0258    6.3963 C   0  0  0  0  0  0  0  0  0  0  0  0
   37.8554  -46.2317    6.0562 C   0  0  0  0  0  0  0  0  0  0  0  0
   38.7017  -47.7441    6.1573 S   0  0  0  0  0  0  0  0  0  0  0  0
   37.7592  -48.8503    5.8085 O   0  0  0  0  0  0  0  0  0  0  0  0
   39.8657  -47.6813    5.2012 O   0  0  0  0  0  0  0  0  0  0  0  0
   39.3363  -48.0617    7.7810 C   0  0  0  0  0  0  0  0  0  0  0  0
   40.3449  -47.0067    8.0755 C   0  0  0  0  0  0  0  0  0  0  0  0
   41.4578  -46.8116    7.2807 C   0  0  0  0  0  0  0  0  0  0  0  0
   42.4034  -45.8380    7.5389 C   0  0  0  0  0  0  0  0  0  0  0  0
   42.1899  -45.0470    8.6490 C   0  0  0  0  0  0  0  0  0  0  0  0
   41.1080  -45.1941    9.4711 C   0  0  0  0  0  0  0  0  0  0  0  0
   40.8504  -44.1702   10.8905 Cl  0  0  0  0  0  0  0  0  0  0  0  0
   40.1823  -46.1864    9.1728 C   0  0  0  0  0  0  0  0  0  0  0  0
   36.5549  -46.2479    5.6003 C   0  0  0  0  0  0  0  0  0  0  0  0
   35.7864  -45.0921    5.4806 C   0  0  0  0  0  0  0  0  0  0  0  0
  1  2  1  0  0  0  0
  2  3  2  0  0  0  0
  2  4  1  0  0  0  0
  4  5  1  0  0  0  0
  5  6  2  0  0  0  0
  6  7  1  0  0  0  0
  7  8  2  0  0  0  0
  8  9  1  0  0  0  0
  8 20  1  0  0  0  0
  9 10  2  0  0  0  0
  9 11  2  0  0  0  0
  9 12  1  0  0  0  0
 12 13  1  0  0  0  0
 13 14  2  0  0  0  0
 14 15  1  0  0  0  0
 15 16  2  0  0  0  0
 16 17  1  0  0  0  0
 17 18  1  0  0  0  0
 17 19  2  0  0  0  0
 19 13  1  0  0  0  0
 20 21  2  0  0  0  0
 21  5  1  0  0  0  0
M  END
>  <CHROM.1>
-0.89943737,175.35394461,-63.78478059,-58.54577705,38.72156910,-45.22969479
7.13031136,-2.71823098,0.68362262,-2.72696792

>  <Name>
design_13

>  <RI>
0

>  <Rbt.Current_Directory>
/home/ziqiaoxu/icml18-jtnn/VAEdesign

>  <Rbt.Executable>
rbdock ($Id: //depot/dev/client3/rdock/2013.1/src/exe/rbdock.cxx#4 $)

>  <Rbt.Library>
libRbt.so (2013.1, Build901 2013/11/27)

>  <Rbt.Parameter_File>
/export/apps/rDock/src/rDock_2013.1_src//data/scripts/dock.prm

>  <Rbt.Receptor>
/home/ziqiaoxu/icml18-jtnn/VAEdesign/targets/RdRp-SARS-CoV-2/pocket_docking.prm

>  <SCORE>
-16.6978

>  <SCORE.INTER>
-16.8366

>  <SCORE.INTER.CONST>
1

>  <SCORE.INTER.POLAR>
-0.425126

>  <SCORE.INTER.REPUL>
0.247137

>  <SCORE.INTER.ROT>
4

>  <SCORE.INTER.VDW>
-26.0269

>  <SCORE.INTER.norm>
-0.801745

>  <SCORE.INTRA>
0.138868

>  <SCORE.INTRA.DIHEDRAL>
-0.016912

>  <SCORE.INTRA.DIHEDRAL.0>
1.9862

>  <SCORE.INTRA.POLAR>
0

>  <SCORE.INTRA.POLAR.0>
0

>  <SCORE.INTRA.REPUL>
0

>  <SCORE.INTRA.REPUL.0>
0

>  <SCORE.INTRA.VDW>
0.147324

>  <SCORE.INTRA.VDW.0>
-2.11221

>  <SCORE.INTRA.norm>
0.00661277

>  <SCORE.RESTR>
0

>  <SCORE.RESTR.CAVITY>
0

>  <SCORE.RESTR.norm>
0

>  <SCORE.SYSTEM>
0

>  <SCORE.SYSTEM.CONST>
0

>  <SCORE.SYSTEM.DIHEDRAL>
0

>  <SCORE.SYSTEM.norm>
0

>  <SCORE.heavy>
21

>  <SCORE.norm>
-0.795132

$$$$
design_17
 OpenBabel05252019093D

 26 29  0  0  0  0  0  0  0  0999 V2000
   45.0748  -42.1584    0.4417 O   0  0  0  0  0  0  0  0  0  0  0  0
   44.4309  -42.8909    0.5516 C   0  0  0  0  0  0  0  0  0  0  0  0
   43.7853  -44.1460    0.8380 N   0  0  0  0  0  0  0  0  0  0  0  0
   43.1391  -45.4027    1.1246 C   0  0  0  0  0  0  0  0  0  0  0  0
   42.7337  -45.3761    2.4425 C   0  0  0  0  0  0  0  0  0  0  0  0
   43.5088  -45.4141    3.6421 C   0  0  0  0  0  0  0  0  0  0  0  0
   42.5713  -45.6899    4.7584 C   0  0  0  0  0  0  0  0  0  0  0  0
   42.6039  -45.3972    5.9805 N   0  0  0  0  0  0  0  0  0  0  0  0
   41.8071  -45.8836    6.9384 C   0  0  0  0  0  0  0  0  0  0  0  0
   41.7099  -45.4921    8.3037 C   0  0  0  0  0  0  0  0  0  0  0  0
   40.7810  -45.9794    9.0236 C   0  0  0  0  0  0  0  0  0  0  0  0
   39.8935  -46.9154    8.6506 C   0  0  0  0  0  0  0  0  0  0  0  0
   39.9416  -47.3416    7.3902 C   0  0  0  0  0  0  0  0  0  0  0  0
   40.8977  -46.7602    6.4708 C   0  0  0  0  0  0  0  0  0  0  0  0
   41.2360  -46.8164    4.7799 S   0  0  0  0  0  0  0  0  0  0  0  0
   42.8936  -42.3187   -0.0254 N   0  0  0  0  0  0  0  0  0  0  0  0
   42.3420  -41.4686    0.9263 C   0  0  0  0  0  0  0  0  0  0  0  0
   42.2610  -40.1141    1.1616 C   0  0  0  0  0  0  0  0  0  0  0  0
   43.1938  -39.1926    1.2195 N   0  0  0  0  0  0  0  0  0  0  0  0
   42.5692  -38.0190    1.5794 C   0  0  0  0  0  0  0  0  0  0  0  0
   43.0322  -36.7563    1.7412 C   0  0  0  0  0  0  0  0  0  0  0  0
   42.2023  -35.6950    2.0264 C   0  0  0  0  0  0  0  0  0  0  0  0
   40.8275  -35.9503    2.1119 C   0  0  0  0  0  0  0  0  0  0  0  0
   40.3736  -37.2526    1.9041 C   0  0  0  0  0  0  0  0  0  0  0  0
   41.2598  -38.3012    1.6554 C   0  0  0  0  0  0  0  0  0  0  0  0
   41.0207  -39.5798    1.4226 N   0  0  0  0  0  0  0  0  0  0  0  0
  1  2  2  0  0  0  0
  2  3  1  0  0  0  0
  2 16  1  0  0  0  0
  3  4  1  0  0  0  0
  4  5  1  0  0  0  0
  5  6  1  0  0  0  0
  6  7  1  0  0  0  0
  7  8  2  0  0  0  0
  8  9  1  0  0  0  0
  9 10  2  0  0  0  0
 10 11  1  0  0  0  0
 11 12  2  0  0  0  0
 12 13  1  0  0  0  0
 13 14  2  0  0  0  0
 14 15  1  0  0  0  0
 14  9  1  0  0  0  0
 15  7  1  0  0  0  0
 16 17  1  0  0  0  0
 17 18  1  0  0  0  0
 18 19  2  0  0  0  0
 19 20  1  0  0  0  0
 20 21  2  0  0  0  0
 21 22  1  0  0  0  0
 22 23  2  0  0  0  0
 23 24  1  0  0  0  0
 24 25  2  0  0  0  0
 25 26  1  0  0  0  0
 25 20  1  0  0  0  0
 26 18  1  0  0  0  0
M  END
>  <CHROM.1>
101.33272952,-70.06016811,-166.53536793,-152.26660141,97.05635534,-52.32144753
42.15080383,-42.78417859,3.34423302,-1.37812240,-1.05704514,2.74295097

>  <Name>
design_17

>  <RI>
0

>  <Rbt.Current_Directory>
/home/ziqiaoxu/icml18-jtnn/VAEdesign

>  <Rbt.Executable>
rbdock ($Id: //depot/dev/client3/rdock/2013.1/src/exe/rbdock.cxx#4 $)

>  <Rbt.Library>
libRbt.so (2013.1, Build901 2013/11/27)

>  <Rbt.Parameter_File>
/export/apps/rDock/src/rDock_2013.1_src//data/scripts/dock.prm

>  <Rbt.Receptor>
/home/ziqiaoxu/icml18-jtnn/VAEdesign/targets/RdRp-SARS-CoV-2/pocket_docking.prm

>  <SCORE>
-22.4183

>  <SCORE.INTER>
-21.9514

>  <SCORE.INTER.CONST>
1

>  <SCORE.INTER.POLAR>
-2.15437

>  <SCORE.INTER.REPUL>
0

>  <SCORE.INTER.ROT>
6

>  <SCORE.INTER.VDW>
-26.0266

>  <SCORE.INTER.norm>
-0.844285

>  <SCORE.INTRA>
-0.466901

>  <SCORE.INTRA.DIHEDRAL>
-0.367355

>  <SCORE.INTRA.DIHEDRAL.0>
5.60384

>  <SCORE.INTRA.POLAR>
0

>  <SCORE.INTRA.POLAR.0>
0

>  <SCORE.INTRA.REPUL>
0

>  <SCORE.INTRA.REPUL.0>
0

>  <SCORE.INTRA.VDW>
-0.283223

>  <SCORE.INTRA.VDW.0>
-0.027384

>  <SCORE.INTRA.norm>
-0.0179577

>  <SCORE.RESTR>
0

>  <SCORE.RESTR.CAVITY>
0

>  <SCORE.RESTR.norm>
0

>  <SCORE.SYSTEM>
0

>  <SCORE.SYSTEM.CONST>
0

>  <SCORE.SYSTEM.DIHEDRAL>
0

>  <SCORE.SYSTEM.norm>
0

>  <SCORE.heavy>
26

>  <SCORE.norm>
-0.862243

$$$$
design_1
 OpenBabel05252019093D

 26 29  0  0  0  0  0  0  0  0999 V2000
   38.4264  -49.1292    6.5921 C   0  0  0  0  0  0  0  0  0  0  0  0
   38.8530  -48.1003    7.5947 C   0  0  0  0  0  0  0  0  0  0  0  0
   38.1440  -47.6213    8.6371 N   0  0  0  0  0  0  0  0  0  0  0  0
   38.8892  -46.7157    9.2864 N   0  0  0  0  0  0  0  0  0  0  0  0
   40.0756  -46.6072    8.6689 C   0  0  0  0  0  0  0  0  0  0  0  0
   41.1484  -45.7163    9.0946 C   0  0  0  0  0  0  0  0  0  0  0  0
   41.0617  -44.9843   10.2725 C   0  0  0  0  0  0  0  0  0  0  0  0
   42.1027  -44.1558   10.6281 C   0  0  0  0  0  0  0  0  0  0  0  0
   43.2514  -44.0227    9.8428 C   0  0  0  0  0  0  0  0  0  0  0  0
   43.3420  -44.7500    8.6684 C   0  0  0  0  0  0  0  0  0  0  0  0
   44.5014  -44.6960    7.7497 C   0  0  0  0  0  0  0  0  0  0  0  0
   44.0970  -44.9416    6.4036 N   0  0  0  0  0  0  0  0  0  0  0  0
   45.0559  -45.1712    5.3986 C   0  0  0  0  0  0  0  0  0  0  0  0
   46.2752  -45.1581    5.6963 O   0  0  0  0  0  0  0  0  0  0  0  0
   44.6231  -45.4261    3.9999 C   0  0  1  0  0  0  0  0  0  0  0  0
   43.6336  -44.4166    3.4855 C   0  0  0  0  0  0  0  0  0  0  0  0
   43.0156  -45.0042    2.3288 O   0  0  0  0  0  0  0  0  0  0  0  0
   43.8918  -45.5716    1.4149 C   0  0  0  0  0  0  0  0  0  0  0  0
   43.3930  -45.9190    0.1803 C   0  0  0  0  0  0  0  0  0  0  0  0
   44.2083  -46.4817   -0.7609 C   0  0  0  0  0  0  0  0  0  0  0  0
   45.5467  -46.7048   -0.4732 C   0  0  0  0  0  0  0  0  0  0  0  0
   46.0518  -46.3565    0.7676 C   0  0  0  0  0  0  0  0  0  0  0  0
   45.2274  -45.7896    1.7139 C   0  0  0  0  0  0  0  0  0  0  0  0
   45.8023  -45.4288    3.0323 C   0  0  0  0  0  0  0  0  0  0  0  0
   42.2899  -45.5672    8.3397 C   0  0  0  0  0  0  0  0  0  0  0  0
   40.0354  -47.4548    7.6447 N   0  0  0  0  0  0  0  0  0  0  0  0
  1  2  1  0  0  0  0
  2  3  2  0  0  0  0
  3  4  1  0  0  0  0
  4  5  1  0  0  0  0
  5  6  1  0  0  0  0
  5 26  2  0  0  0  0
  6  7  2  0  0  0  0
  7  8  1  0  0  0  0
  8  9  2  0  0  0  0
  9 10  1  0  0  0  0
 10 11  1  0  0  0  0
 10 25  2  0  0  0  0
 11 12  1  0  0  0  0
 12 13  1  0  0  0  0
 13 14  2  0  0  0  0
 15 13  1  1  0  0  0
 15 16  1  0  0  0  0
 16 17  1  0  0  0  0
 17 18  1  0  0  0  0
 18 19  2  0  0  0  0
 19 20  1  0  0  0  0
 20 21  2  0  0  0  0
 21 22  1  0  0  0  0
 22 23  2  0  0  0  0
 23 24  1  0  0  0  0
 23 18  1  0  0  0  0
 24 15  1  0  0  0  0
 25  6  1  0  0  0  0
 26  2  1  0  0  0  0
M  END
>  <CHROM.1>
6.05965667,-150.26124913,-168.77470208,49.72317600,42.79345538,-45.84494903
5.62615905,2.17816120,0.50098576,1.30581151

>  <Name>
design_1

>  <RI>
0

>  <Rbt.Current_Directory>
/home/ziqiaoxu/icml18-jtnn/VAEdesign

>  <Rbt.Executable>
rbdock ($Id: //depot/dev/client3/rdock/2013.1/src/exe/rbdock.cxx#4 $)

>  <Rbt.Library>
libRbt.so (2013.1, Build901 2013/11/27)

>  <Rbt.Parameter_File>
/export/apps/rDock/src/rDock_2013.1_src//data/scripts/dock.prm

>  <Rbt.Receptor>
/home/ziqiaoxu/icml18-jtnn/VAEdesign/targets/RdRp-SARS-CoV-2/pocket_docking.prm

>  <SCORE>
-18.5753

>  <SCORE.INTER>
-20.0906

>  <SCORE.INTER.CONST>
1

>  <SCORE.INTER.POLAR>
-1.0198

>  <SCORE.INTER.REPUL>
0

>  <SCORE.INTER.ROT>
4

>  <SCORE.INTER.VDW>
-26.0233

>  <SCORE.INTER.norm>
-0.772716

>  <SCORE.INTRA>
1.51535

>  <SCORE.INTRA.DIHEDRAL>
0.345063

>  <SCORE.INTRA.DIHEDRAL.0>
2.47462

>  <SCORE.INTRA.POLAR>
0

>  <SCORE.INTRA.POLAR.0>
0

>  <SCORE.INTRA.REPUL>
0

>  <SCORE.INTRA.REPUL.0>
0

>  <SCORE.INTRA.VDW>
1.34282

>  <SCORE.INTRA.VDW.0>
-0.827497

>  <SCORE.INTRA.norm>
0.0582827

>  <SCORE.RESTR>
0

>  <SCORE.RESTR.CAVITY>
0

>  <SCORE.RESTR.norm>
0

>  <SCORE.SYSTEM>
0

>  <SCORE.SYSTEM.CONST>
0

>  <SCORE.SYSTEM.DIHEDRAL>
0

>  <SCORE.SYSTEM.norm>
0

>  <SCORE.heavy>
26

>  <SCORE.norm>
-0.714433

$$$$
design_10
 OpenBabel05252019093D

 25 27  0  0  0  0  0  0  0  0999 V2000
   44.9951  -43.4462   10.6938 C   0  0  0  0  0  0  0  0  0  0  0  0
   44.2433  -44.0773    9.5750 C   0  0  0  0  0  0  0  0  0  0  0  0
   44.5706  -44.0322    8.3000 N   0  0  0  0  0  0  0  0  0  0  0  0
   43.6106  -44.7420    7.6051 C   0  0  0  0  0  0  0  0  0  0  0  0
   43.7123  -44.8661    6.1376 C   0  0  0  0  0  0  0  0  0  0  0  0
   44.9707  -45.5347    5.7882 N   0  0  0  0  0  0  0  0  0  0  0  0
   45.7504  -45.1482    4.6560 C   0  0  0  0  0  0  0  0  0  0  0  0
   45.3802  -44.2074    3.8965 O   0  0  0  0  0  0  0  0  0  0  0  0
   47.0237  -45.8418    4.3352 C   0  0  0  0  0  0  0  0  0  0  0  0
   46.9136  -46.8685    3.4039 O   0  0  0  0  0  0  0  0  0  0  0  0
   46.4572  -46.8040    2.1139 C   0  0  0  0  0  0  0  0  0  0  0  0
   47.2391  -47.2503    1.0425 C   0  0  0  0  0  0  0  0  0  0  0  0
   46.8367  -47.2131   -0.2591 C   0  0  0  0  0  0  0  0  0  0  0  0
   45.5935  -46.7118   -0.5587 C   0  0  0  0  0  0  0  0  0  0  0  0
   44.7840  -46.2579    0.4741 C   0  0  0  0  0  0  0  0  0  0  0  0
   45.2270  -46.3102    1.8000 C   0  0  0  0  0  0  0  0  0  0  0  0
   42.7196  -45.2029    8.4852 C   0  0  0  0  0  0  0  0  0  0  0  0
   41.4985  -45.9742    8.4403 C   0  0  0  0  0  0  0  0  0  0  0  0
   41.2441  -46.6601    7.2024 C   0  0  0  0  0  0  0  0  0  0  0  0
   40.1217  -47.3735    7.0159 C   0  0  0  0  0  0  0  0  0  0  0  0
   39.1316  -47.5132    7.9674 C   0  0  0  0  0  0  0  0  0  0  0  0
   39.3642  -46.8627    9.1458 C   0  0  0  0  0  0  0  0  0  0  0  0
   40.5365  -46.1018    9.3721 C   0  0  0  0  0  0  0  0  0  0  0  0
   40.6048  -45.2366   10.8960 Cl  0  0  0  0  0  0  0  0  0  0  0  0
   43.1631  -44.7600    9.6846 O   0  0  0  0  0  0  0  0  0  0  0  0
  1  2  1  0  0  0  0
  2  3  2  0  0  0  0
  3  4  1  0  0  0  0
  4  5  1  0  0  0  0
  4 17  2  0  0  0  0
  5  6  1  0  0  0  0
  6  7  1  0  0  0  0
  7  8  2  0  0  0  0
  7  9  1  0  0  0  0
  9 10  1  0  0  0  0
 10 11  1  0  0  0  0
 11 12  2  0  0  0  0
 12 13  1  0  0  0  0
 13 14  2  0  0  0  0
 14 15  1  0  0  0  0
 15 16  2  0  0  0  0
 16 11  1  0  0  0  0
 17 18  1  0  0  0  0
 17 25  1  0  0  0  0
 18 19  2  0  0  0  0
 19 20  1  0  0  0  0
 20 21  2  0  0  0  0
 21 22  1  0  0  0  0
 22 23  2  0  0  0  0
 23 24  1  0  0  0  0
 23 18  1  0  0  0  0
 25  2  1  0  0  0  0
M  END
>  <CHROM.1>
60.13850753,-141.60597435,95.28064869,58.90163909,124.67909489,14.61544658
43.68859195,-45.73859432,6.20341484,-2.16316056,-0.41443194,-1.95621671

>  <Name>
design_10

>  <RI>
0

>  <Rbt.Current_Directory>
/home/ziqiaoxu/icml18-jtnn/VAEdesign

>  <Rbt.Executable>
rbdock ($Id: //depot/dev/client3/rdock/2013.1/src/exe/rbdock.cxx#4 $)

>  <Rbt.Library>
libRbt.so (2013.1, Build901 2013/11/27)

>  <Rbt.Parameter_File>
/export/apps/rDock/src/rDock_2013.1_src//data/scripts/dock.prm

>  <Rbt.Receptor>
/home/ziqiaoxu/icml18-jtnn/VAEdesign/targets/RdRp-SARS-CoV-2/pocket_docking.prm

>  <SCORE>
-19.5934

>  <SCORE.INTER>
-17.6571

>  <SCORE.INTER.CONST>
1

>  <SCORE.INTER.POLAR>
-0.894427

>  <SCORE.INTER.REPUL>
0

>  <SCORE.INTER.ROT>
6

>  <SCORE.INTER.VDW>
-26.016

>  <SCORE.INTER.norm>
-0.706282

>  <SCORE.INTRA>
-1.93635

>  <SCORE.INTRA.DIHEDRAL>
-3.42925

>  <SCORE.INTRA.DIHEDRAL.0>
10.3878

>  <SCORE.INTRA.POLAR>
0

>  <SCORE.INTRA.POLAR.0>
0

>  <SCORE.INTRA.REPUL>
0

>  <SCORE.INTRA.REPUL.0>
0

>  <SCORE.INTRA.VDW>
-0.221722

>  <SCORE.INTRA.VDW.0>
-2.00481

>  <SCORE.INTRA.norm>
-0.0774538

>  <SCORE.RESTR>
0

>  <SCORE.RESTR.CAVITY>
0

>  <SCORE.RESTR.norm>
0

>  <SCORE.SYSTEM>
0

>  <SCORE.SYSTEM.CONST>
0

>  <SCORE.SYSTEM.DIHEDRAL>
0

>  <SCORE.SYSTEM.norm>
0

>  <SCORE.heavy>
25

>  <SCORE.norm>
-0.783736

$$$$
design_17
 OpenBabel05252019093D

 23 24  0  0  0  0  0  0  0  0999 V2000
   38.8010  -46.7515    8.8994 C   0  0  0  0  0  0  0  0  0  0  0  0
   40.1593  -46.2171    8.6887 C   0  0  0  0  0  0  0  0  0  0  0  0
   40.7310  -45.3522    9.5795 C   0  0  0  0  0  0  0  0  0  0  0  0
   41.9997  -44.8402    9.4023 C   0  0  0  0  0  0  0  0  0  0  0  0
   42.7240  -45.1998    8.3036 C   0  0  0  0  0  0  0  0  0  0  0  0
   44.3482  -44.5999    7.9920 S   0  0  0  0  0  0  0  0  0  0  0  0
   44.2170  -43.1358    7.6557 O   0  0  0  0  0  0  0  0  0  0  0  0
   45.2250  -44.7010    9.1895 O   0  0  0  0  0  0  0  0  0  0  0  0
   44.9662  -45.4441    6.6452 N   0  0  0  0  0  0  0  0  0  0  0  0
   45.9635  -44.7353    5.9213 C   0  0  0  0  0  0  0  0  0  0  0  0
   46.0750  -45.3425    4.5396 C   0  0  0  0  0  0  0  0  0  0  0  0
   45.0739  -45.2533    3.8138 O   0  0  0  0  0  0  0  0  0  0  0  0
   47.2609  -45.9686    4.1252 N   0  0  0  0  0  0  0  0  0  0  0  0
   47.4694  -46.5631    2.8849 C   0  0  0  0  0  0  0  0  0  0  0  0
   48.5213  -47.3477    2.5624 C   0  0  0  0  0  0  0  0  0  0  0  0
   48.6450  -47.9264    1.2847 C   0  0  0  0  0  0  0  0  0  0  0  0
   47.6837  -47.6929    0.3456 C   0  0  0  0  0  0  0  0  0  0  0  0
   46.6014  -46.9021    0.6340 C   0  0  0  0  0  0  0  0  0  0  0  0
   45.3403  -46.5781   -0.5538 Cl  0  0  0  0  0  0  0  0  0  0  0  0
   46.5113  -46.3556    1.8838 C   0  0  0  0  0  0  0  0  0  0  0  0
   42.1456  -46.0772    7.3990 C   0  0  0  0  0  0  0  0  0  0  0  0
   40.8904  -46.5835    7.5745 C   0  0  0  0  0  0  0  0  0  0  0  0
   40.2676  -47.5209    6.6115 C   0  0  0  0  0  0  0  0  0  0  0  0
  1  2  1  0  0  0  0
  2  3  2  0  0  0  0
  3  4  1  0  0  0  0
  4  5  2  0  0  0  0
  5  6  1  0  0  0  0
  5 21  1  0  0  0  0
  6  7  2  0  0  0  0
  6  8  2  0  0  0  0
  6  9  1  0  0  0  0
  9 10  1  0  0  0  0
 10 11  1  0  0  0  0
 11 12  2  0  0  0  0
 11 13  1  0  0  0  0
 13 14  1  0  0  0  0
 14 15  2  0  0  0  0
 15 16  1  0  0  0  0
 16 17  2  0  0  0  0
 17 18  1  0  0  0  0
 18 19  1  0  0  0  0
 18 20  2  0  0  0  0
 20 14  1  0  0  0  0
 21 22  2  0  0  0  0
 22 23  1  0  0  0  0
 22  2  1  0  0  0  0
M  END
>  <CHROM.1>
-69.60025859,154.29906952,-160.69140735,63.88267620,-168.71914018,44.46201782
-45.89266035,5.27284684,2.20075199,0.27168945,1.20637360

>  <Name>
design_17

>  <RI>
0

>  <Rbt.Current_Directory>
/home/ziqiaoxu/icml18-jtnn/VAEdesign

>  <Rbt.Executable>
rbdock ($Id: //depot/dev/client3/rdock/2013.1/src/exe/rbdock.cxx#4 $)

>  <Rbt.Library>
libRbt.so (2013.1, Build901 2013/11/27)

>  <Rbt.Parameter_File>
/export/apps/rDock/src/rDock_2013.1_src//data/scripts/dock.prm

>  <Rbt.Receptor>
/home/ziqiaoxu/icml18-jtnn/VAEdesign/targets/RdRp-SARS-CoV-2/pocket_docking.prm

>  <SCORE>
-20.5207

>  <SCORE.INTER>
-20.8406

>  <SCORE.INTER.CONST>
1

>  <SCORE.INTER.POLAR>
-1.53804

>  <SCORE.INTER.REPUL>
0.000403803

>  <SCORE.INTER.ROT>
5

>  <SCORE.INTER.VDW>
-26.0133

>  <SCORE.INTER.norm>
-0.906114

>  <SCORE.INTRA>
0.319983

>  <SCORE.INTRA.DIHEDRAL>
-0.0998757

>  <SCORE.INTRA.DIHEDRAL.0>
3.84814

>  <SCORE.INTRA.POLAR>
0

>  <SCORE.INTRA.POLAR.0>
0

>  <SCORE.INTRA.REPUL>
0

>  <SCORE.INTRA.REPUL.0>
0

>  <SCORE.INTRA.VDW>
0.36992

>  <SCORE.INTRA.VDW.0>
-1.09246

>  <SCORE.INTRA.norm>
0.0139123

>  <SCORE.RESTR>
0

>  <SCORE.RESTR.CAVITY>
0

>  <SCORE.RESTR.norm>
0

>  <SCORE.SYSTEM>
0

>  <SCORE.SYSTEM.CONST>
0

>  <SCORE.SYSTEM.DIHEDRAL>
0

>  <SCORE.SYSTEM.norm>
0

>  <SCORE.heavy>
23

>  <SCORE.norm>
-0.892202

$$$$
design_8
 OpenBabel05252019093D

 26 27  0  0  0  0  0  0  0  0999 V2000
   39.9184  -43.8288    9.8959 C   0  0  0  0  0  0  0  0  0  0  0  0
   39.6839  -44.7098    8.6807 N   0  0  0  0  0  0  0  0  0  0  0  0
   39.3646  -44.0080    7.4660 C   0  0  0  0  0  0  0  0  0  0  0  0
   39.7834  -46.0649    8.9532 C   0  0  0  0  0  0  0  0  0  0  0  0
   40.0262  -46.3451   10.2022 O   0  0  0  0  0  0  0  0  0  0  0  0
   39.6506  -47.1796    8.0463 C   0  0  0  0  0  0  0  0  0  0  0  0
   38.7757  -48.2332    8.2486 C   0  0  0  0  0  0  0  0  0  0  0  0
   38.5582  -49.1980    7.2984 C   0  0  0  0  0  0  0  0  0  0  0  0
   39.2180  -49.1309    6.1090 C   0  0  0  0  0  0  0  0  0  0  0  0
   40.1024  -48.0943    5.8692 C   0  0  0  0  0  0  0  0  0  0  0  0
   40.3347  -47.1182    6.8125 C   0  0  0  0  0  0  0  0  0  0  0  0
   41.3642  -46.1771    6.5878 N   0  0  0  0  0  0  0  0  0  0  0  0
   42.1827  -46.0764    5.4324 C   0  0  0  0  0  0  0  0  0  0  0  0
   42.0269  -46.8510    4.4848 O   0  0  0  0  0  0  0  0  0  0  0  0
   43.2422  -45.0300    5.3526 C   0  0  0  0  0  0  0  0  0  0  0  0
   44.2799  -45.1170    6.4205 C   0  0  0  0  0  0  0  0  0  0  0  0
   43.9374  -44.2610    7.5784 C   0  0  0  0  0  0  0  0  0  0  0  0
   44.7107  -44.5727    8.7675 N   0  0  0  0  0  0  0  0  0  0  0  0
   44.1240  -44.3130   10.0301 C   0  0  0  0  0  0  0  0  0  0  0  0
   42.9488  -43.8187   10.1237 O   0  0  0  0  0  0  0  0  0  0  0  0
   44.8044  -44.5853   11.2873 C   0  0  0  0  0  0  0  0  0  0  0  0
   44.2305  -44.2416   12.4878 C   0  0  0  0  0  0  0  0  0  0  0  0
   44.8483  -44.4852   13.7028 C   0  0  0  0  0  0  0  0  0  0  0  0
   46.0934  -45.0969   13.7542 C   0  0  0  0  0  0  0  0  0  0  0  0
   46.6751  -45.4442   12.5560 C   0  0  0  0  0  0  0  0  0  0  0  0
   46.0480  -45.1955   11.3553 C   0  0  0  0  0  0  0  0  0  0  0  0
  1  2  1  0  0  0  0
  2  3  1  0  0  0  0
  2  4  1  0  0  0  0
  4  5  2  0  0  0  0
  4  6  1  0  0  0  0
  6  7  2  0  0  0  0
  7  8  1  0  0  0  0
  8  9  2  0  0  0  0
  9 10  1  0  0  0  0
 10 11  2  0  0  0  0
 11 12  1  0  0  0  0
 11  6  1  0  0  0  0
 12 13  1  0  0  0  0
 13 14  2  0  0  0  0
 13 15  1  0  0  0  0
 15 16  1  0  0  0  0
 16 17  1  0  0  0  0
 17 18  1  0  0  0  0
 18 19  1  0  0  0  0
 19 20  2  0  0  0  0
 19 21  1  0  0  0  0
 21 22  2  0  0  0  0
 22 23  1  0  0  0  0
 23 24  2  0  0  0  0
 24 25  1  0  0  0  0
 25 26  2  0  0  0  0
 26 21  1  0  0  0  0
M  END
>  <CHROM.1>
-125.92114270,175.39509795,59.88589481,-93.23912419,164.68904758,-151.69376967
175.96634215,42.17387503,-45.69670061,8.71259023,2.34656810,-0.34483115,-1.69873858

>  <Name>
design_8

>  <RI>
0

>  <Rbt.Current_Directory>
/home/ziqiaoxu/icml18-jtnn/VAEdesign

>  <Rbt.Executable>
rbdock ($Id: //depot/dev/client3/rdock/2013.1/src/exe/rbdock.cxx#4 $)

>  <Rbt.Library>
libRbt.so (2013.1, Build901 2013/11/27)

>  <Rbt.Parameter_File>
/export/apps/rDock/src/rDock_2013.1_src//data/scripts/dock.prm

>  <Rbt.Receptor>
/home/ziqiaoxu/icml18-jtnn/VAEdesign/targets/RdRp-SARS-CoV-2/pocket_docking.prm

>  <SCORE>
-15.41

>  <SCORE.INTER>
-16.4238

>  <SCORE.INTER.CONST>
1

>  <SCORE.INTER.POLAR>
-0.92941

>  <SCORE.INTER.REPUL>
0.0689199

>  <SCORE.INTER.ROT>
7

>  <SCORE.INTER.VDW>
-26.0084

>  <SCORE.INTER.norm>
-0.631686

>  <SCORE.INTRA>
1.01383

>  <SCORE.INTRA.DIHEDRAL>
8.02404

>  <SCORE.INTRA.DIHEDRAL.0>
5.94527

>  <SCORE.INTRA.POLAR>
0

>  <SCORE.INTRA.POLAR.0>
0

>  <SCORE.INTRA.REPUL>
0

>  <SCORE.INTRA.REPUL.0>
0

>  <SCORE.INTRA.VDW>
-2.99819

>  <SCORE.INTRA.VDW.0>
0.921833

>  <SCORE.INTRA.norm>
0.0389934

>  <SCORE.RESTR>
0

>  <SCORE.RESTR.CAVITY>
0

>  <SCORE.RESTR.norm>
0

>  <SCORE.SYSTEM>
0

>  <SCORE.SYSTEM.CONST>
0

>  <SCORE.SYSTEM.DIHEDRAL>
0

>  <SCORE.SYSTEM.norm>
0

>  <SCORE.heavy>
26

>  <SCORE.norm>
-0.592692

$$$$
design_17
 OpenBabel05252019093D

 25 28  0  0  0  0  0  0  0  0999 V2000
   42.4160  -45.1131    6.0435 O   0  0  0  0  0  0  0  0  0  0  0  0
   41.6202  -45.9128    5.4289 C   0  0  0  0  0  0  0  0  0  0  0  0
   41.6510  -45.8827    4.0306 N   0  0  0  0  0  0  0  0  0  0  0  0
   42.4867  -45.0074    3.2659 C   0  0  0  0  0  0  0  0  0  0  0  0
   41.9423  -43.6302    3.0425 C   0  0  0  0  0  0  0  0  0  0  0  0
   41.8250  -43.3216    1.5508 C   0  0  0  0  0  0  0  0  0  0  0  0
   43.1554  -43.4478    0.9620 N   0  0  0  0  0  0  0  0  0  0  0  0
   44.0552  -42.4541    0.8340 C   0  0  0  0  0  0  0  0  0  0  0  0
   45.1702  -42.9104    0.2391 N   0  0  0  0  0  0  0  0  0  0  0  0
   45.0232  -44.2217   -0.0367 C   0  0  0  0  0  0  0  0  0  0  0  0
   45.8223  -45.1745   -0.6210 C   0  0  0  0  0  0  0  0  0  0  0  0
   45.3927  -46.4647   -0.7664 C   0  0  0  0  0  0  0  0  0  0  0  0
   44.1095  -46.7893   -0.3007 C   0  0  0  0  0  0  0  0  0  0  0  0
   43.3069  -45.8377    0.2845 C   0  0  0  0  0  0  0  0  0  0  0  0
   43.7404  -44.5366    0.4307 C   0  0  0  0  0  0  0  0  0  0  0  0
   40.8131  -46.7373    6.2964 C   0  0  0  0  0  0  0  0  0  0  0  0
   40.1744  -47.8223    5.6663 C   0  0  0  0  0  0  0  0  0  0  0  0
   39.3202  -48.5812    6.4105 C   0  0  0  0  0  0  0  0  0  0  0  0
   39.0778  -48.3063    7.7473 C   0  0  0  0  0  0  0  0  0  0  0  0
   39.7011  -47.2444    8.3769 C   0  0  0  0  0  0  0  0  0  0  0  0
   39.4960  -46.9854    9.6713 N   0  0  0  0  0  0  0  0  0  0  0  0
   40.1019  -45.9843   10.3265 C   0  0  0  0  0  0  0  0  0  0  0  0
   40.9782  -45.1895    9.6223 C   0  0  0  0  0  0  0  0  0  0  0  0
   41.2217  -45.4205    8.2775 C   0  0  0  0  0  0  0  0  0  0  0  0
   40.5775  -46.4598    7.6303 C   0  0  0  0  0  0  0  0  0  0  0  0
  1  2  2  0  0  0  0
  2  3  1  0  0  0  0
  2 16  1  0  0  0  0
  3  4  1  0  0  0  0
  4  5  1  0  0  0  0
  5  6  1  0  0  0  0
  6  7  1  0  0  0  0
  7  8  1  0  0  0  0
  8  9  2  0  0  0  0
  9 10  1  0  0  0  0
 10 11  2  0  0  0  0
 11 12  1  0  0  0  0
 12 13  2  0  0  0  0
 13 14  1  0  0  0  0
 14 15  2  0  0  0  0
 15  7  1  0  0  0  0
 15 10  1  0  0  0  0
 16 17  2  0  0  0  0
 17 18  1  0  0  0  0
 18 19  2  0  0  0  0
 19 20  1  0  0  0  0
 20 21  2  0  0  0  0
 21 22  1  0  0  0  0
 22 23  2  0  0  0  0
 23 24  1  0  0  0  0
 24 25  2  0  0  0  0
 25 16  1  0  0  0  0
 25 20  1  0  0  0  0
M  END
>  <CHROM.1>
-83.88370991,-121.93688116,-58.78290853,-90.87441064,-165.81296467,42.13286010
-45.54746139,4.16234161,-2.79801297,-1.07888538,-2.48725915

>  <Name>
design_17

>  <RI>
0

>  <Rbt.Current_Directory>
/home/ziqiaoxu/icml18-jtnn/VAEdesign

>  <Rbt.Executable>
rbdock ($Id: //depot/dev/client3/rdock/2013.1/src/exe/rbdock.cxx#4 $)

>  <Rbt.Library>
libRbt.so (2013.1, Build901 2013/11/27)

>  <Rbt.Parameter_File>
/export/apps/rDock/src/rDock_2013.1_src//data/scripts/dock.prm

>  <Rbt.Receptor>
/home/ziqiaoxu/icml18-jtnn/VAEdesign/targets/RdRp-SARS-CoV-2/pocket_docking.prm

>  <SCORE>
-17.3884

>  <SCORE.INTER>
-19.2981

>  <SCORE.INTER.CONST>
1

>  <SCORE.INTER.POLAR>
-1.08544

>  <SCORE.INTER.REPUL>
0

>  <SCORE.INTER.ROT>
5

>  <SCORE.INTER.VDW>
-26.0076

>  <SCORE.INTER.norm>
-0.771926

>  <SCORE.INTRA>
1.90974

>  <SCORE.INTRA.DIHEDRAL>
0.196555

>  <SCORE.INTRA.DIHEDRAL.0>
9.95197

>  <SCORE.INTRA.POLAR>
0

>  <SCORE.INTRA.POLAR.0>
0

>  <SCORE.INTRA.REPUL>
0

>  <SCORE.INTRA.REPUL.0>
0

>  <SCORE.INTRA.VDW>
1.81147

>  <SCORE.INTRA.VDW.0>
-1.39738

>  <SCORE.INTRA.norm>
0.0763897

>  <SCORE.RESTR>
0

>  <SCORE.RESTR.CAVITY>
0

>  <SCORE.RESTR.norm>
0

>  <SCORE.SYSTEM>
0

>  <SCORE.SYSTEM.CONST>
0

>  <SCORE.SYSTEM.DIHEDRAL>
0

>  <SCORE.SYSTEM.norm>
0

>  <SCORE.heavy>
25

>  <SCORE.norm>
-0.695536

$$$$
design_5
 OpenBabel05252019093D

 26 29  0  0  0  0  0  0  0  0999 V2000
   34.9274  -40.5808    5.1386 C   0  0  0  0  0  0  0  0  0  0  0  0
   35.8366  -41.6290    5.6987 C   0  0  0  0  0  0  0  0  0  0  0  0
   36.8318  -41.3574    6.5491 N   0  0  0  0  0  0  0  0  0  0  0  0
   37.4054  -42.5259    6.8175 N   0  0  0  0  0  0  0  0  0  0  0  0
   36.7993  -43.5175    6.1615 C   0  0  0  0  0  0  0  0  0  0  0  0
   37.1622  -44.9107    6.2220 C   0  0  0  0  0  0  0  0  0  0  0  0
   37.0059  -45.7503    5.1163 C   0  0  0  0  0  0  0  0  0  0  0  0
   37.3568  -47.0695    5.1960 C   0  0  0  0  0  0  0  0  0  0  0  0
   37.8616  -47.5620    6.3641 C   0  0  0  0  0  0  0  0  0  0  0  0
   38.0364  -46.7699    7.4905 C   0  0  0  0  0  0  0  0  0  0  0  0
   38.5837  -47.3046    8.7567 C   0  0  0  0  0  0  0  0  0  0  0  0
   39.3873  -46.2903    9.3923 N   0  0  0  0  0  0  0  0  0  0  0  0
   40.6706  -45.9458    8.8449 C   0  0  0  0  0  0  0  0  0  0  0  0
   41.0848  -46.5107    7.6591 C   0  0  0  0  0  0  0  0  0  0  0  0
   42.3307  -46.1854    7.1138 C   0  0  0  0  0  0  0  0  0  0  0  0
   43.1733  -45.2945    7.7461 C   0  0  0  0  0  0  0  0  0  0  0  0
   44.4770  -44.9375    7.2003 C   0  0  0  0  0  0  0  0  0  0  0  0
   45.0252  -45.3190    6.0349 N   0  0  0  0  0  0  0  0  0  0  0  0
   46.2441  -44.7643    5.9136 C   0  0  0  0  0  0  0  0  0  0  0  0
   47.1403  -44.9629    4.7564 C   0  0  0  0  0  0  0  0  0  0  0  0
   46.4211  -44.0406    7.0280 N   0  0  0  0  0  0  0  0  0  0  0  0
   45.3431  -44.1648    7.7805 O   0  0  0  0  0  0  0  0  0  0  0  0
   42.7073  -44.7558    8.9355 C   0  0  0  0  0  0  0  0  0  0  0  0
   41.5040  -45.0816    9.4449 N   0  0  0  0  0  0  0  0  0  0  0  0
   37.6734  -45.4343    7.3866 C   0  0  0  0  0  0  0  0  0  0  0  0
   35.8016  -42.9443    5.4504 N   0  0  0  0  0  0  0  0  0  0  0  0
  1  2  1  0  0  0  0
  2  3  2  0  0  0  0
  3  4  1  0  0  0  0
  4  5  1  0  0  0  0
  5  6  1  0  0  0  0
  5 26  2  0  0  0  0
  6  7  2  0  0  0  0
  7  8  1  0  0  0  0
  8  9  2  0  0  0  0
  9 10  1  0  0  0  0
 10 11  1  0  0  0  0
 10 25  2  0  0  0  0
 11 12  1  0  0  0  0
 12 13  1  0  0  0  0
 13 14  2  0  0  0  0
 14 15  1  0  0  0  0
 15 16  2  0  0  0  0
 16 17  1  0  0  0  0
 16 23  1  0  0  0  0
 17 18  2  0  0  0  0
 18 19  1  0  0  0  0
 19 20  1  0  0  0  0
 19 21  2  0  0  0  0
 21 22  1  0  0  0  0
 22 17  1  0  0  0  0
 23 24  2  0  0  0  0
 24 13  1  0  0  0  0
 25  6  1  0  0  0  0
 26  2  1  0  0  0  0
M  END
>  <CHROM.1>
-147.18841923,144.97074279,-72.47837838,4.94636868,3.92615969,40.30002982
-44.78987133,6.93819770,-2.96247512,0.00992170,2.70074226

>  <Name>
design_5

>  <RI>
0

>  <Rbt.Current_Directory>
/home/ziqiaoxu/icml18-jtnn/VAEdesign

>  <Rbt.Executable>
rbdock ($Id: //depot/dev/client3/rdock/2013.1/src/exe/rbdock.cxx#4 $)

>  <Rbt.Library>
libRbt.so (2013.1, Build901 2013/11/27)

>  <Rbt.Parameter_File>
/export/apps/rDock/src/rDock_2013.1_src//data/scripts/dock.prm

>  <Rbt.Receptor>
/home/ziqiaoxu/icml18-jtnn/VAEdesign/targets/RdRp-SARS-CoV-2/pocket_docking.prm

>  <SCORE>
-17.3154

>  <SCORE.INTER>
-18.9718

>  <SCORE.INTER.CONST>
1

>  <SCORE.INTER.POLAR>
-1.0198

>  <SCORE.INTER.REPUL>
0.0205936

>  <SCORE.INTER.ROT>
5

>  <SCORE.INTER.VDW>
-26.0075

>  <SCORE.INTER.norm>
-0.729686

>  <SCORE.INTRA>
1.65643

>  <SCORE.INTRA.DIHEDRAL>
3.9132

>  <SCORE.INTRA.DIHEDRAL.0>
3.12006

>  <SCORE.INTRA.POLAR>
0

>  <SCORE.INTRA.POLAR.0>
0

>  <SCORE.INTRA.REPUL>
0

>  <SCORE.INTRA.REPUL.0>
0

>  <SCORE.INTRA.VDW>
-0.300169

>  <SCORE.INTRA.VDW.0>
-0.273486

>  <SCORE.INTRA.norm>
0.0637088

>  <SCORE.RESTR>
0

>  <SCORE.RESTR.CAVITY>
0

>  <SCORE.RESTR.norm>
0

>  <SCORE.SYSTEM>
0

>  <SCORE.SYSTEM.CONST>
0

>  <SCORE.SYSTEM.DIHEDRAL>
0

>  <SCORE.SYSTEM.norm>
0

>  <SCORE.heavy>
26

>  <SCORE.norm>
-0.665978

$$$$
design_11
 OpenBabel05252019093D

 26 28  0  0  0  0  0  0  0  0999 V2000
   45.8349  -43.8837    7.8637 C   0  0  0  0  0  0  0  0  0  0  0  0
   44.6133  -43.6738    6.9898 C   0  0  1  0  0  0  0  0  0  0  0  0
   44.9273  -44.1116    5.5781 C   0  0  0  0  0  0  0  0  0  0  0  0
   44.6055  -43.2892    4.6974 O   0  0  0  0  0  0  0  0  0  0  0  0
   45.5341  -45.3576    5.3369 N   0  0  0  0  0  0  0  0  0  0  0  0
   45.8961  -45.9274    4.1166 C   0  0  0  0  0  0  0  0  0  0  0  0
   47.0162  -46.6947    3.9074 C   0  0  0  0  0  0  0  0  0  0  0  0
   47.3431  -47.2449    2.6745 C   0  0  0  0  0  0  0  0  0  0  0  0
   46.4994  -47.0066    1.6120 C   0  0  0  0  0  0  0  0  0  0  0  0
   45.3695  -46.2381    1.8033 C   0  0  0  0  0  0  0  0  0  0  0  0
   44.4787  -45.9957    0.6485 C   0  0  0  0  0  0  0  0  0  0  0  0
   44.5827  -46.7749   -0.5205 N   0  0  0  0  0  0  0  0  0  0  0  0
   43.6136  -45.0742    0.7188 O   0  0  0  0  0  0  0  0  0  0  0  0
   45.0785  -45.7132    3.0270 C   0  0  0  0  0  0  0  0  0  0  0  0
   43.5037  -44.4721    7.5572 C   0  0  0  0  0  0  0  0  0  0  0  0
   43.1522  -44.4846    8.8622 N   0  0  0  0  0  0  0  0  0  0  0  0
   42.1368  -45.2950    9.0081 O   0  0  0  0  0  0  0  0  0  0  0  0
   41.7934  -45.8248    7.8608 C   0  0  0  0  0  0  0  0  0  0  0  0
   40.7131  -46.7725    7.6163 C   0  0  0  0  0  0  0  0  0  0  0  0
   40.5826  -47.4285    6.4125 C   0  0  0  0  0  0  0  0  0  0  0  0
   39.5739  -48.3276    6.1535 C   0  0  0  0  0  0  0  0  0  0  0  0
   38.6579  -48.5810    7.1391 C   0  0  0  0  0  0  0  0  0  0  0  0
   38.7743  -47.9250    8.3665 C   0  0  0  0  0  0  0  0  0  0  0  0
   39.7900  -47.0290    8.6072 C   0  0  0  0  0  0  0  0  0  0  0  0
   39.8489  -46.2591   10.1780 Cl  0  0  0  0  0  0  0  0  0  0  0  0
   42.6500  -45.3068    6.9624 N   0  0  0  0  0  0  0  0  0  0  0  0
  2  1  1  1  0  0  0
  2  3  1  0  0  0  0
  2 15  1  0  0  0  0
  3  4  2  0  0  0  0
  3  5  1  0  0  0  0
  5  6  1  0  0  0  0
  6  7  2  0  0  0  0
  7  8  1  0  0  0  0
  8  9  2  0  0  0  0
  9 10  1  0  0  0  0
 10 11  1  0  0  0  0
 10 14  2  0  0  0  0
 11 12  1  0  0  0  0
 11 13  2  0  0  0  0
 14  6  1  0  0  0  0
 15 16  2  0  0  0  0
 16 17  1  0  0  0  0
 17 18  1  0  0  0  0
 18 19  1  0  0  0  0
 18 26  2  0  0  0  0
 19 20  2  0  0  0  0
 20 21  1  0  0  0  0
 21 22  2  0  0  0  0
 22 23  1  0  0  0  0
 23 24  2  0  0  0  0
 24 25  1  0  0  0  0
 24 19  1  0  0  0  0
 26 15  1  0  0  0  0
M  END
>  <CHROM.1>
-131.47608012,143.52676551,15.29569244,47.90014480,-169.13459262,43.15651351
-45.92775896,5.74931225,-0.78978060,0.51076680,1.20376337

>  <Name>
design_11

>  <RI>
0

>  <Rbt.Current_Directory>
/home/ziqiaoxu/icml18-jtnn/VAEdesign

>  <Rbt.Executable>
rbdock ($Id: //depot/dev/client3/rdock/2013.1/src/exe/rbdock.cxx#4 $)

>  <Rbt.Library>
libRbt.so (2013.1, Build901 2013/11/27)

>  <Rbt.Parameter_File>
/export/apps/rDock/src/rDock_2013.1_src//data/scripts/dock.prm

>  <Rbt.Receptor>
/home/ziqiaoxu/icml18-jtnn/VAEdesign/targets/RdRp-SARS-CoV-2/pocket_docking.prm

>  <SCORE>
-21.6286

>  <SCORE.INTER>
-24.1165

>  <SCORE.INTER.CONST>
1

>  <SCORE.INTER.POLAR>
-2.50341

>  <SCORE.INTER.REPUL>
0

>  <SCORE.INTER.ROT>
5

>  <SCORE.INTER.VDW>
-26.0049

>  <SCORE.INTER.norm>
-0.927557

>  <SCORE.INTRA>
2.48793

>  <SCORE.INTRA.DIHEDRAL>
6.00427

>  <SCORE.INTRA.DIHEDRAL.0>
1.85467

>  <SCORE.INTRA.POLAR>
0

>  <SCORE.INTRA.POLAR.0>
0

>  <SCORE.INTRA.REPUL>
0

>  <SCORE.INTRA.REPUL.0>
0

>  <SCORE.INTRA.VDW>
-0.514201

>  <SCORE.INTRA.VDW.0>
-0.387861

>  <SCORE.INTRA.norm>
0.0956897

>  <SCORE.RESTR>
0

>  <SCORE.RESTR.CAVITY>
0

>  <SCORE.RESTR.norm>
0

>  <SCORE.SYSTEM>
0

>  <SCORE.SYSTEM.CONST>
0

>  <SCORE.SYSTEM.DIHEDRAL>
0

>  <SCORE.SYSTEM.norm>
0

>  <SCORE.heavy>
26

>  <SCORE.norm>
-0.831868

$$$$
design_16
 OpenBabel05252019093D

 26 28  0  0  0  0  0  0  0  0999 V2000
   38.9594  -49.2421    7.2360 C   0  0  0  0  0  0  0  0  0  0  0  0
   39.2762  -47.8714    7.7329 C   0  0  0  0  0  0  0  0  0  0  0  0
   38.4345  -47.2252    8.6106 C   0  0  0  0  0  0  0  0  0  0  0  0
   38.6901  -45.9488    9.0981 C   0  0  0  0  0  0  0  0  0  0  0  0
   39.8175  -45.2824    8.7069 C   0  0  0  0  0  0  0  0  0  0  0  0
   40.1662  -43.9263    9.1657 C   0  0  0  0  0  0  0  0  0  0  0  0
   41.1778  -43.3950    8.6315 O   0  0  0  0  0  0  0  0  0  0  0  0
   39.4072  -43.2667   10.1458 N   0  0  0  0  0  0  0  0  0  0  0  0
   39.6895  -41.9459   10.6431 C   0  0  0  0  0  0  0  0  0  0  0  0
   39.7647  -41.0098    9.4763 C   0  0  0  0  0  0  0  0  0  0  0  0
   39.1006  -41.2969    8.3026 C   0  0  0  0  0  0  0  0  0  0  0  0
   39.1782  -40.4434    7.2461 C   0  0  0  0  0  0  0  0  0  0  0  0
   39.9128  -39.2460    7.2635 C   0  0  0  0  0  0  0  0  0  0  0  0
   39.8999  -38.4323    6.1046 N   0  0  0  0  0  0  0  0  0  0  0  0
   40.4060  -38.7825    4.8538 C   0  0  0  0  0  0  0  0  0  0  0  0
   40.9286  -39.9023    4.6546 O   0  0  0  0  0  0  0  0  0  0  0  0
   40.3479  -37.8499    3.7099 C   0  0  0  0  0  0  0  0  0  0  0  0
   41.4105  -37.8052    2.8030 C   0  0  0  0  0  0  0  0  0  0  0  0
   41.3829  -36.9423    1.7305 C   0  0  0  0  0  0  0  0  0  0  0  0
   40.3128  -36.1015    1.5198 C   0  0  0  0  0  0  0  0  0  0  0  0
   39.2976  -36.1498    2.3931 N   0  0  0  0  0  0  0  0  0  0  0  0
   39.3065  -36.9984    3.4627 C   0  0  0  0  0  0  0  0  0  0  0  0
   40.5706  -38.9633    8.4305 C   0  0  0  0  0  0  0  0  0  0  0  0
   40.4875  -39.8459    9.5148 C   0  0  0  0  0  0  0  0  0  0  0  0
   40.6730  -45.9370    7.8163 C   0  0  0  0  0  0  0  0  0  0  0  0
   40.4108  -47.1946    7.3426 C   0  0  0  0  0  0  0  0  0  0  0  0
  1  2  1  0  0  0  0
  2  3  2  0  0  0  0
  3  4  1  0  0  0  0
  4  5  2  0  0  0  0
  5  6  1  0  0  0  0
  5 25  1  0  0  0  0
  6  7  2  0  0  0  0
  6  8  1  0  0  0  0
  8  9  1  0  0  0  0
  9 10  1  0  0  0  0
 10 11  2  0  0  0  0
 11 12  1  0  0  0  0
 12 13  2  0  0  0  0
 13 14  1  0  0  0  0
 13 23  1  0  0  0  0
 14 15  1  0  0  0  0
 15 16  2  0  0  0  0
 15 17  1  0  0  0  0
 17 18  2  0  0  0  0
 18 19  1  0  0  0  0
 19 20  2  0  0  0  0
 20 21  1  0  0  0  0
 21 22  2  0  0  0  0
 22 17  1  0  0  0  0
 23 24  2  0  0  0  0
 24 10  1  0  0  0  0
 25 26  2  0  0  0  0
 26  2  1  0  0  0  0
M  END
>  <CHROM.1>
-174.11751780,54.42570391,25.18051496,-63.85531524,143.01989574,39.96505585
-41.59029506,6.79785325,-2.93701192,1.49158853,0.84387622

>  <Name>
design_16

>  <RI>
0

>  <Rbt.Current_Directory>
/home/ziqiaoxu/icml18-jtnn/VAEdesign

>  <Rbt.Executable>
rbdock ($Id: //depot/dev/client3/rdock/2013.1/src/exe/rbdock.cxx#4 $)

>  <Rbt.Library>
libRbt.so (2013.1, Build901 2013/11/27)

>  <Rbt.Parameter_File>
/export/apps/rDock/src/rDock_2013.1_src//data/scripts/dock.prm

>  <Rbt.Receptor>
/home/ziqiaoxu/icml18-jtnn/VAEdesign/targets/RdRp-SARS-CoV-2/pocket_docking.prm

>  <SCORE>
-14.1474

>  <SCORE.INTER>
-20.8936

>  <SCORE.INTER.CONST>
1

>  <SCORE.INTER.POLAR>
-1.55678

>  <SCORE.INTER.REPUL>
0.000540336

>  <SCORE.INTER.ROT>
5

>  <SCORE.INTER.VDW>
-26.0032

>  <SCORE.INTER.norm>
-0.803598

>  <SCORE.INTRA>
6.74613

>  <SCORE.INTRA.DIHEDRAL>
13.2764

>  <SCORE.INTRA.DIHEDRAL.0>
3.5891

>  <SCORE.INTRA.POLAR>
0

>  <SCORE.INTRA.POLAR.0>
0

>  <SCORE.INTRA.REPUL>
0

>  <SCORE.INTRA.REPUL.0>
0

>  <SCORE.INTRA.VDW>
0.107917

>  <SCORE.INTRA.VDW.0>
-1.13452

>  <SCORE.INTRA.norm>
0.259466

>  <SCORE.RESTR>
0

>  <SCORE.RESTR.CAVITY>
0

>  <SCORE.RESTR.norm>
0

>  <SCORE.SYSTEM>
0

>  <SCORE.SYSTEM.CONST>
0

>  <SCORE.SYSTEM.DIHEDRAL>
0

>  <SCORE.SYSTEM.norm>
0

>  <SCORE.heavy>
26

>  <SCORE.norm>
-0.544132

$$$$
design_2
 OpenBabel05252019093D

 26 29  0  0  0  0  0  0  0  0999 V2000
   39.5544  -47.5835    7.0891 C   0  0  0  0  0  0  0  0  0  0  0  0
   40.0988  -46.7304    8.2195 C   0  0  0  0  0  0  0  0  0  0  0  0
   39.3398  -46.5292    9.3447 C   0  0  0  0  0  0  0  0  0  0  0  0
   40.3833  -45.5291   10.2752 S   0  0  0  0  0  0  0  0  0  0  0  0
   41.6862  -45.4406    9.1855 C   0  0  0  0  0  0  0  0  0  0  0  0
   42.9697  -44.7250    9.3300 C   0  0  0  0  0  0  0  0  0  0  0  0
   43.3268  -44.2166   10.5678 C   0  0  0  0  0  0  0  0  0  0  0  0
   44.5138  -43.5419   10.7476 C   0  0  0  0  0  0  0  0  0  0  0  0
   45.3361  -43.3902    9.6493 C   0  0  0  0  0  0  0  0  0  0  0  0
   45.0181  -43.8798    8.4051 C   0  0  0  0  0  0  0  0  0  0  0  0
   45.9376  -43.6921    7.2595 C   0  0  0  0  0  0  0  0  0  0  0  0
   45.8264  -44.8062    6.3712 N   0  0  0  0  0  0  0  0  0  0  0  0
   45.6750  -44.6940    4.9712 C   0  0  0  0  0  0  0  0  0  0  0  0
   45.6326  -43.5564    4.4573 O   0  0  0  0  0  0  0  0  0  0  0  0
   45.5665  -45.8968    4.1134 C   0  0  2  0  0  0  0  0  0  0  0  0
   46.8791  -46.2549    3.4766 C   0  0  0  0  0  0  0  0  0  0  0  0
   46.8143  -46.5172    2.1150 O   0  0  0  0  0  0  0  0  0  0  0  0
   45.7212  -46.3589    1.3082 C   0  0  0  0  0  0  0  0  0  0  0  0
   45.8296  -46.5368   -0.0623 C   0  0  0  0  0  0  0  0  0  0  0  0
   44.7122  -46.3698   -0.8420 C   0  0  0  0  0  0  0  0  0  0  0  0
   43.5111  -46.0300   -0.2473 C   0  0  0  0  0  0  0  0  0  0  0  0
   43.3784  -45.8476    1.1121 C   0  0  0  0  0  0  0  0  0  0  0  0
   44.5259  -46.0213    1.8929 C   0  0  0  0  0  0  0  0  0  0  0  0
   44.4741  -45.8572    3.2547 O   0  0  0  0  0  0  0  0  0  0  0  0
   43.8180  -44.5466    8.2821 C   0  0  0  0  0  0  0  0  0  0  0  0
   41.2649  -46.1735    8.1711 N   0  0  0  0  0  0  0  0  0  0  0  0
  1  2  1  0  0  0  0
  2  3  2  0  0  0  0
  3  4  1  0  0  0  0
  4  5  1  0  0  0  0
  5  6  1  0  0  0  0
  5 26  2  0  0  0  0
  6  7  2  0  0  0  0
  7  8  1  0  0  0  0
  8  9  2  0  0  0  0
  9 10  1  0  0  0  0
 10 11  1  0  0  0  0
 10 25  2  0  0  0  0
 11 12  1  0  0  0  0
 12 13  1  0  0  0  0
 13 14  2  0  0  0  0
 15 13  1  6  0  0  0
 15 16  1  0  0  0  0
 16 17  1  0  0  0  0
 17 18  1  0  0  0  0
 18 19  2  0  0  0  0
 19 20  1  0  0  0  0
 20 21  2  0  0  0  0
 21 22  1  0  0  0  0
 22 23  2  0  0  0  0
 23 24  1  0  0  0  0
 23 18  1  0  0  0  0
 24 15  1  0  0  0  0
 25  6  1  0  0  0  0
 26  2  1  0  0  0  0
M  END
>  <CHROM.1>
11.96827927,148.09536476,132.09033473,-98.22435063,43.77151462,-45.42714556
5.89523793,2.00586287,0.40263958,1.29131193

>  <Name>
design_2

>  <RI>
0

>  <Rbt.Current_Directory>
/home/ziqiaoxu/icml18-jtnn/VAEdesign

>  <Rbt.Executable>
rbdock ($Id: //depot/dev/client3/rdock/2013.1/src/exe/rbdock.cxx#4 $)

>  <Rbt.Library>
libRbt.so (2013.1, Build901 2013/11/27)

>  <Rbt.Parameter_File>
/export/apps/rDock/src/rDock_2013.1_src//data/scripts/dock.prm

>  <Rbt.Receptor>
/home/ziqiaoxu/icml18-jtnn/VAEdesign/targets/RdRp-SARS-CoV-2/pocket_docking.prm

>  <SCORE>
-19.8571

>  <SCORE.INTER>
-19.6375

>  <SCORE.INTER.CONST>
1

>  <SCORE.INTER.POLAR>
-0.893829

>  <SCORE.INTER.REPUL>
0

>  <SCORE.INTER.ROT>
4

>  <SCORE.INTER.VDW>
-25.9985

>  <SCORE.INTER.norm>
-0.755288

>  <SCORE.INTRA>
-0.21966

>  <SCORE.INTRA.DIHEDRAL>
1.55231

>  <SCORE.INTRA.DIHEDRAL.0>
2.87714

>  <SCORE.INTRA.POLAR>
0

>  <SCORE.INTRA.POLAR.0>
0

>  <SCORE.INTRA.REPUL>
0

>  <SCORE.INTRA.REPUL.0>
0

>  <SCORE.INTRA.VDW>
-0.995814

>  <SCORE.INTRA.VDW.0>
-0.587707

>  <SCORE.INTRA.norm>
-0.00844845

>  <SCORE.RESTR>
0

>  <SCORE.RESTR.CAVITY>
0

>  <SCORE.RESTR.norm>
0

>  <SCORE.SYSTEM>
0

>  <SCORE.SYSTEM.CONST>
0

>  <SCORE.SYSTEM.DIHEDRAL>
0

>  <SCORE.SYSTEM.norm>
0

>  <SCORE.heavy>
26

>  <SCORE.norm>
-0.763736

$$$$
design_11
 OpenBabel05252019093D

 25 27  0  0  0  0  0  0  0  0999 V2000
   38.1395  -45.9112    2.0971 N   0  0  0  0  0  0  0  0  0  0  0  0
   39.3092  -45.4827    2.8857 C   0  0  0  0  0  0  0  0  0  0  0  0
   39.1428  -45.7939    4.1242 O   0  0  0  0  0  0  0  0  0  0  0  0
   40.3427  -44.8750    2.3462 N   0  0  0  0  0  0  0  0  0  0  0  0
   41.4370  -44.2315    1.7748 C   0  0  0  0  0  0  0  0  0  0  0  0
   42.5708  -44.9492    1.4128 C   0  0  0  0  0  0  0  0  0  0  0  0
   43.6251  -44.2308    0.8962 C   0  0  0  0  0  0  0  0  0  0  0  0
   43.5403  -42.8365    0.7549 C   0  0  0  0  0  0  0  0  0  0  0  0
   42.4373  -42.1352    1.1085 C   0  0  0  0  0  0  0  0  0  0  0  0
   42.4026  -40.6901    0.9242 C   0  0  0  0  0  0  0  0  0  0  0  0
   43.3167  -40.1105    0.2951 O   0  0  0  0  0  0  0  0  0  0  0  0
   41.2981  -39.9438    1.4809 N   0  0  0  0  0  0  0  0  0  0  0  0
   41.2528  -38.5438    1.2935 C   0  0  0  0  0  0  0  0  0  0  0  0
   40.7811  -37.8196    2.5014 C   0  0  0  0  0  0  0  0  0  0  0  0
   40.2427  -36.5500    2.4911 C   0  0  0  0  0  0  0  0  0  0  0  0
   39.8218  -35.9352    3.6759 C   0  0  0  0  0  0  0  0  0  0  0  0
   39.9397  -36.5914    4.8713 C   0  0  0  0  0  0  0  0  0  0  0  0
   40.4745  -37.8728    4.9414 C   0  0  0  0  0  0  0  0  0  0  0  0
   40.6068  -38.5385    6.1855 N   0  0  0  0  0  0  0  0  0  0  0  0
   40.4491  -37.9638    7.3752 C   0  0  0  0  0  0  0  0  0  0  0  0
   40.6585  -38.9055    8.3829 C   0  0  0  0  0  0  0  0  0  0  0  0
   40.9518  -40.0686    7.7048 C   0  0  0  0  0  0  0  0  0  0  0  0
   40.9091  -39.8048    6.3721 N   0  0  0  0  0  0  0  0  0  0  0  0
   40.8706  -38.4282    3.7506 C   0  0  0  0  0  0  0  0  0  0  0  0
   41.3709  -42.8371    1.6249 C   0  0  0  0  0  0  0  0  0  0  0  0
  1  2  1  0  0  0  0
  2  3  2  0  0  0  0
  2  4  1  0  0  0  0
  4  5  1  0  0  0  0
  5  6  2  0  0  0  0
  6  7  1  0  0  0  0
  7  8  2  0  0  0  0
  8  9  1  0  0  0  0
  9 10  1  0  0  0  0
  9 25  2  0  0  0  0
 10 11  2  0  0  0  0
 10 12  1  0  0  0  0
 12 13  1  0  0  0  0
 13 14  1  0  0  0  0
 14 15  2  0  0  0  0
 15 16  1  0  0  0  0
 16 17  2  0  0  0  0
 17 18  1  0  0  0  0
 18 19  1  0  0  0  0
 18 24  2  0  0  0  0
 19 20  1  0  0  0  0
 20 21  2  0  0  0  0
 21 22  1  0  0  0  0
 22 23  2  0  0  0  0
 23 19  1  0  0  0  0
 24 14  1  0  0  0  0
 25  5  1  0  0  0  0
M  END
>  <CHROM.1>
-162.08647344,8.63617998,-140.33954470,-158.45535125,-11.07099910,41.00513843
-40.91918667,3.23790806,1.40472745,-1.14243053,-2.83052853

>  <Name>
design_11

>  <RI>
0

>  <Rbt.Current_Directory>
/home/ziqiaoxu/icml18-jtnn/VAEdesign

>  <Rbt.Executable>
rbdock ($Id: //depot/dev/client3/rdock/2013.1/src/exe/rbdock.cxx#4 $)

>  <Rbt.Library>
libRbt.so (2013.1, Build901 2013/11/27)

>  <Rbt.Parameter_File>
/export/apps/rDock/src/rDock_2013.1_src//data/scripts/dock.prm

>  <Rbt.Receptor>
/home/ziqiaoxu/icml18-jtnn/VAEdesign/targets/RdRp-SARS-CoV-2/pocket_docking.prm

>  <SCORE>
-24.7301

>  <SCORE.INTER>
-22.6671

>  <SCORE.INTER.CONST>
1

>  <SCORE.INTER.POLAR>
-2.07957

>  <SCORE.INTER.REPUL>
0

>  <SCORE.INTER.ROT>
5

>  <SCORE.INTER.VDW>
-25.9965

>  <SCORE.INTER.norm>
-0.906683

>  <SCORE.INTRA>
-2.06302

>  <SCORE.INTRA.DIHEDRAL>
-6.13172

>  <SCORE.INTRA.DIHEDRAL.0>
15.9087

>  <SCORE.INTRA.POLAR>
0

>  <SCORE.INTRA.POLAR.0>
0

>  <SCORE.INTRA.REPUL>
0

>  <SCORE.INTRA.REPUL.0>
0

>  <SCORE.INTRA.VDW>
1.00284

>  <SCORE.INTRA.VDW.0>
-1.60223

>  <SCORE.INTRA.norm>
-0.0825209

>  <SCORE.RESTR>
0

>  <SCORE.RESTR.CAVITY>
0

>  <SCORE.RESTR.norm>
0

>  <SCORE.SYSTEM>
0

>  <SCORE.SYSTEM.CONST>
0

>  <SCORE.SYSTEM.DIHEDRAL>
0

>  <SCORE.SYSTEM.norm>
0

>  <SCORE.heavy>
25

>  <SCORE.norm>
-0.989204

$$$$
design_0
 OpenBabel05252019093D

 27 29  0  0  0  0  0  0  0  0999 V2000
   43.9808  -39.5635    0.2976 C   0  0  0  0  0  0  0  0  0  0  0  0
   42.8371  -38.8281    0.8875 C   0  0  0  0  0  0  0  0  0  0  0  0
   41.6025  -39.4348    0.9445 C   0  0  0  0  0  0  0  0  0  0  0  0
   40.5686  -38.7164    1.4999 C   0  0  0  0  0  0  0  0  0  0  0  0
   40.6967  -37.4429    1.9959 C   0  0  0  0  0  0  0  0  0  0  0  0
   39.6023  -36.6361    2.5746 C   0  0  0  0  0  0  0  0  0  0  0  0
   39.5652  -36.6023    4.0097 N   0  0  0  0  0  0  0  0  0  0  0  0
   39.7846  -37.7704    4.8312 C   0  0  0  0  0  0  0  0  0  0  0  0
   40.0228  -38.8477    4.2810 O   0  0  0  0  0  0  0  0  0  0  0  0
   39.7173  -37.6295    6.2221 N   0  0  0  0  0  0  0  0  0  0  0  0
   39.8947  -38.6958    7.1132 C   0  0  0  0  0  0  0  0  0  0  0  0
   40.4281  -38.5976    8.3637 C   0  0  0  0  0  0  0  0  0  0  0  0
   40.5482  -39.6830    9.2034 C   0  0  0  0  0  0  0  0  0  0  0  0
   40.1141  -40.9000    8.7574 C   0  0  0  0  0  0  0  0  0  0  0  0
   39.5477  -41.0947    7.4739 C   0  0  0  0  0  0  0  0  0  0  0  0
   39.1542  -42.4255    7.1077 C   0  0  0  0  0  0  0  0  0  0  0  0
   38.6893  -42.5952    5.8873 O   0  0  0  0  0  0  0  0  0  0  0  0
   39.1849  -43.6050    7.8534 N   0  0  0  0  0  0  0  0  0  0  0  0
   38.6616  -44.8484    7.1759 C   0  0  0  0  0  0  0  0  0  0  0  0
   39.8748  -45.7402    7.0710 C   0  0  0  0  0  0  0  0  0  0  0  0
   40.3448  -46.1778    8.4361 C   0  0  0  0  0  0  0  0  0  0  0  0
   39.7756  -45.3353    9.5314 C   0  0  0  0  0  0  0  0  0  0  0  0
   39.6491  -43.8721    9.1638 C   0  0  0  0  0  0  0  0  0  0  0  0
   39.4611  -39.9745    6.6976 C   0  0  0  0  0  0  0  0  0  0  0  0
   41.9603  -36.8483    1.9264 C   0  0  0  0  0  0  0  0  0  0  0  0
   42.2184  -35.4862    2.4260 C   0  0  0  0  0  0  0  0  0  0  0  0
   43.0027  -37.5494    1.3756 C   0  0  0  0  0  0  0  0  0  0  0  0
  1  2  1  0  0  0  0
  2  3  2  0  0  0  0
  3  4  1  0  0  0  0
  4  5  2  0  0  0  0
  5  6  1  0  0  0  0
  5 25  1  0  0  0  0
  6  7  1  0  0  0  0
  7  8  1  0  0  0  0
  8  9  2  0  0  0  0
  8 10  1  0  0  0  0
 10 11  1  0  0  0  0
 11 12  2  0  0  0  0
 12 13  1  0  0  0  0
 13 14  2  0  0  0  0
 14 15  1  0  0  0  0
 15 16  1  0  0  0  0
 15 24  2  0  0  0  0
 16 17  2  0  0  0  0
 16 18  1  0  0  0  0
 18 19  1  0  0  0  0
 19 20  1  0  0  0  0
 20 21  1  0  0  0  0
 21 22  1  0  0  0  0
 22 23  1  0  0  0  0
 23 18  1  0  0  0  0
 24 11  1  0  0  0  0
 25 26  1  0  0  0  0
 25 27  2  0  0  0  0
 27  2  1  0  0  0  0
M  END
>  <CHROM.1>
100.56382455,-42.25263145,148.69159606,-176.85191754,40.38783748,-40.21342896
5.31009183,-0.93135531,-1.19490111,2.97801157

>  <Name>
design_0

>  <RI>
0

>  <Rbt.Current_Directory>
/home/ziqiaoxu/icml18-jtnn/VAEdesign

>  <Rbt.Executable>
rbdock ($Id: //depot/dev/client3/rdock/2013.1/src/exe/rbdock.cxx#4 $)

>  <Rbt.Library>
libRbt.so (2013.1, Build901 2013/11/27)

>  <Rbt.Parameter_File>
/export/apps/rDock/src/rDock_2013.1_src//data/scripts/dock.prm

>  <Rbt.Receptor>
/home/ziqiaoxu/icml18-jtnn/VAEdesign/targets/RdRp-SARS-CoV-2/pocket_docking.prm

>  <SCORE>
-19.5337

>  <SCORE.INTER>
-20.3975

>  <SCORE.INTER.CONST>
1

>  <SCORE.INTER.POLAR>
-1.11803

>  <SCORE.INTER.REPUL>
0

>  <SCORE.INTER.ROT>
4

>  <SCORE.INTER.VDW>
-25.9962

>  <SCORE.INTER.norm>
-0.755463

>  <SCORE.INTRA>
0.863831

>  <SCORE.INTRA.DIHEDRAL>
1.09678

>  <SCORE.INTRA.DIHEDRAL.0>
4.46569

>  <SCORE.INTRA.POLAR>
0

>  <SCORE.INTRA.POLAR.0>
0

>  <SCORE.INTRA.REPUL>
0

>  <SCORE.INTRA.REPUL.0>
0

>  <SCORE.INTRA.VDW>
0.315439

>  <SCORE.INTRA.VDW.0>
-0.949321

>  <SCORE.INTRA.norm>
0.0319937

>  <SCORE.RESTR>
0

>  <SCORE.RESTR.CAVITY>
0

>  <SCORE.RESTR.norm>
0

>  <SCORE.SYSTEM>
0

>  <SCORE.SYSTEM.CONST>
0

>  <SCORE.SYSTEM.DIHEDRAL>
0

>  <SCORE.SYSTEM.norm>
0

>  <SCORE.heavy>
27

>  <SCORE.norm>
-0.723469

$$$$
design_5
 OpenBabel05252019093D

 22 23  0  0  0  0  0  0  0  0999 V2000
   45.4995  -45.4402    0.8949 C   0  0  0  0  0  0  0  0  0  0  0  0
   44.4180  -45.1102   -0.0882 C   0  0  0  0  0  0  0  0  0  0  0  0
   43.6745  -46.3845   -0.4306 C   0  0  0  0  0  0  0  0  0  0  0  0
   43.4168  -44.2251    0.6144 C   0  0  0  0  0  0  0  0  0  0  0  0
   42.6692  -44.5858    1.6307 N   0  0  0  0  0  0  0  0  0  0  0  0
   41.8355  -43.7343    2.1609 C   0  0  0  0  0  0  0  0  0  0  0  0
   40.9831  -44.1361    3.3153 C   0  0  0  0  0  0  0  0  0  0  0  0
   40.4264  -43.2938    4.0590 O   0  0  0  0  0  0  0  0  0  0  0  0
   40.7953  -45.5059    3.5815 N   0  0  0  0  0  0  0  0  0  0  0  0
   39.9985  -46.0219    4.6533 C   0  0  0  0  0  0  0  0  0  0  0  0
   40.3894  -47.4343    4.9724 C   0  0  0  0  0  0  0  0  0  0  0  0
   39.5345  -48.0387    6.4189 S   0  0  0  0  0  0  0  0  0  0  0  0
   38.0615  -47.9797    6.2431 O   0  0  0  0  0  0  0  0  0  0  0  0
   39.9703  -49.4386    6.6939 O   0  0  0  0  0  0  0  0  0  0  0  0
   40.0131  -47.0434    7.7918 C   0  0  0  0  0  0  0  0  0  0  0  0
   39.2318  -46.9988    8.9439 C   0  0  0  0  0  0  0  0  0  0  0  0
   39.5799  -46.2284   10.0368 C   0  0  0  0  0  0  0  0  0  0  0  0
   40.7374  -45.4695   10.0070 C   0  0  0  0  0  0  0  0  0  0  0  0
   41.5145  -45.5071    8.8747 C   0  0  0  0  0  0  0  0  0  0  0  0
   41.1629  -46.2813    7.7786 C   0  0  0  0  0  0  0  0  0  0  0  0
   41.7913  -42.4792    1.6064 C   0  0  0  0  0  0  0  0  0  0  0  0
   42.9534  -42.6068    0.3577 S   0  0  0  0  0  0  0  0  0  0  0  0
  1  2  1  0  0  0  0
  2  3  1  0  0  0  0
  2  4  1  0  0  0  0
  4  5  2  0  0  0  0
  5  6  1  0  0  0  0
  6  7  1  0  0  0  0
  6 21  2  0  0  0  0
  7  8  2  0  0  0  0
  7  9  1  0  0  0  0
  9 10  1  0  0  0  0
 10 11  1  0  0  0  0
 11 12  1  0  0  0  0
 12 13  2  0  0  0  0
 12 14  2  0  0  0  0
 12 15  1  0  0  0  0
 15 16  2  0  0  0  0
 16 17  1  0  0  0  0
 17 18  2  0  0  0  0
 18 19  1  0  0  0  0
 19 20  2  0  0  0  0
 20 15  1  0  0  0  0
 21 22  1  0  0  0  0
 22  4  1  0  0  0  0
M  END
>  <CHROM.1>
-64.75230894,161.91177146,-159.34020636,173.81646216,58.29004875,160.27157680
41.27983342,-45.65057376,4.39626751,0.00374823,-1.15666261,-2.74000374

>  <Name>
design_5

>  <RI>
0

>  <Rbt.Current_Directory>
/home/ziqiaoxu/icml18-jtnn/VAEdesign

>  <Rbt.Executable>
rbdock ($Id: //depot/dev/client3/rdock/2013.1/src/exe/rbdock.cxx#4 $)

>  <Rbt.Library>
libRbt.so (2013.1, Build901 2013/11/27)

>  <Rbt.Parameter_File>
/export/apps/rDock/src/rDock_2013.1_src//data/scripts/dock.prm

>  <Rbt.Receptor>
/home/ziqiaoxu/icml18-jtnn/VAEdesign/targets/RdRp-SARS-CoV-2/pocket_docking.prm

>  <SCORE>
-16.232

>  <SCORE.INTER>
-17.0193

>  <SCORE.INTER.CONST>
1

>  <SCORE.INTER.POLAR>
-0.713407

>  <SCORE.INTER.REPUL>
0

>  <SCORE.INTER.ROT>
6

>  <SCORE.INTER.VDW>
-25.9937

>  <SCORE.INTER.norm>
-0.773605

>  <SCORE.INTRA>
0.78727

>  <SCORE.INTRA.DIHEDRAL>
1.24216

>  <SCORE.INTRA.DIHEDRAL.0>
3.45967

>  <SCORE.INTRA.POLAR>
0

>  <SCORE.INTRA.POLAR.0>
0

>  <SCORE.INTRA.REPUL>
0

>  <SCORE.INTRA.REPUL.0>
0

>  <SCORE.INTRA.VDW>
0.166188

>  <SCORE.INTRA.VDW.0>
-1.72649

>  <SCORE.INTRA.norm>
0.035785

>  <SCORE.RESTR>
0

>  <SCORE.RESTR.CAVITY>
0

>  <SCORE.RESTR.norm>
0

>  <SCORE.SYSTEM>
0

>  <SCORE.SYSTEM.CONST>
0

>  <SCORE.SYSTEM.DIHEDRAL>
0

>  <SCORE.SYSTEM.norm>
0

>  <SCORE.heavy>
22

>  <SCORE.norm>
-0.73782

$$$$
design_1
 OpenBabel05252019093D

 23 24  0  0  0  0  0  0  0  0999 V2000
   41.9904  -35.3122    1.8990 C   0  0  0  0  0  0  0  0  0  0  0  0
   41.7229  -35.9590    3.2270 C   0  0  0  0  0  0  0  0  0  0  0  0
   40.2592  -36.9614    3.1514 S   0  0  0  0  0  0  0  0  0  0  0  0
   39.0446  -36.1477    2.9092 O   0  0  0  0  0  0  0  0  0  0  0  0
   40.4434  -38.0187    2.1256 O   0  0  0  0  0  0  0  0  0  0  0  0
   40.0773  -37.7170    4.7348 C   0  0  0  0  0  0  0  0  0  0  0  0
   39.9009  -39.0652    4.8900 C   0  0  0  0  0  0  0  0  0  0  0  0
   39.7617  -39.6312    6.1262 C   0  0  0  0  0  0  0  0  0  0  0  0
   39.7943  -38.8483    7.2962 C   0  0  0  0  0  0  0  0  0  0  0  0
   39.6550  -39.5299    8.5081 N   0  0  0  0  0  0  0  0  0  0  0  0
   39.5749  -40.9075    8.6810 C   0  0  0  0  0  0  0  0  0  0  0  0
   39.6247  -41.7572    7.7553 O   0  0  0  0  0  0  0  0  0  0  0  0
   39.4211  -41.4704   10.0089 N   0  0  0  0  0  0  0  0  0  0  0  0
   39.3263  -42.8635   10.2856 C   0  0  0  0  0  0  0  0  0  0  0  0
   40.6099  -43.6322   10.2211 C   0  0  0  0  0  0  0  0  0  0  0  0
   40.4864  -44.8735    9.4204 C   0  0  0  0  0  0  0  0  0  0  0  0
   41.3226  -45.1132    8.3505 C   0  0  0  0  0  0  0  0  0  0  0  0
   41.2111  -46.2784    7.5943 C   0  0  0  0  0  0  0  0  0  0  0  0
   40.2623  -47.2337    7.8867 C   0  0  0  0  0  0  0  0  0  0  0  0
   39.4301  -46.9804    8.9627 C   0  0  0  0  0  0  0  0  0  0  0  0
   39.5362  -45.8285    9.7147 C   0  0  0  0  0  0  0  0  0  0  0  0
   39.9700  -37.5051    7.1470 C   0  0  0  0  0  0  0  0  0  0  0  0
   40.1080  -36.9603    5.8816 C   0  0  0  0  0  0  0  0  0  0  0  0
  1  2  1  0  0  0  0
  2  3  1  0  0  0  0
  3  4  2  0  0  0  0
  3  5  2  0  0  0  0
  3  6  1  0  0  0  0
  6  7  2  0  0  0  0
  7  8  1  0  0  0  0
  8  9  2  0  0  0  0
  9 10  1  0  0  0  0
  9 22  1  0  0  0  0
 10 11  1  0  0  0  0
 11 12  2  0  0  0  0
 11 13  1  0  0  0  0
 13 14  1  0  0  0  0
 14 15  1  0  0  0  0
 15 16  1  0  0  0  0
 16 17  2  0  0  0  0
 17 18  1  0  0  0  0
 18 19  2  0  0  0  0
 19 20  1  0  0  0  0
 20 21  2  0  0  0  0
 21 16  1  0  0  0  0
 22 23  2  0  0  0  0
 23  6  1  0  0  0  0
M  END
>  <CHROM.1>
-65.04084473,-128.48164065,4.49336482,76.12936019,-131.72033898,124.24979551
40.15673210,-40.49171088,6.54360632,-1.42033222,-1.31818888,2.68638700

>  <Name>
design_1

>  <RI>
0

>  <Rbt.Current_Directory>
/home/ziqiaoxu/icml18-jtnn/VAEdesign

>  <Rbt.Executable>
rbdock ($Id: //depot/dev/client3/rdock/2013.1/src/exe/rbdock.cxx#4 $)

>  <Rbt.Library>
libRbt.so (2013.1, Build901 2013/11/27)

>  <Rbt.Parameter_File>
/export/apps/rDock/src/rDock_2013.1_src//data/scripts/dock.prm

>  <Rbt.Receptor>
/home/ziqiaoxu/icml18-jtnn/VAEdesign/targets/RdRp-SARS-CoV-2/pocket_docking.prm

>  <SCORE>
-17.7656

>  <SCORE.INTER>
-21.3625

>  <SCORE.INTER.CONST>
1

>  <SCORE.INTER.POLAR>
-1.99091

>  <SCORE.INTER.REPUL>
0

>  <SCORE.INTER.ROT>
6

>  <SCORE.INTER.VDW>
-25.9934

>  <SCORE.INTER.norm>
-0.928805

>  <SCORE.INTRA>
3.13058

>  <SCORE.INTRA.DIHEDRAL>
4.57988

>  <SCORE.INTRA.DIHEDRAL.0>
3.67732

>  <SCORE.INTRA.POLAR>
0

>  <SCORE.INTRA.POLAR.0>
0

>  <SCORE.INTRA.REPUL>
0

>  <SCORE.INTRA.REPUL.0>
0

>  <SCORE.INTRA.VDW>
0.840641

>  <SCORE.INTRA.VDW.0>
-1.46628

>  <SCORE.INTRA.norm>
0.136112

>  <SCORE.RESTR>
0.466277

>  <SCORE.RESTR.CAVITY>
0.466277

>  <SCORE.RESTR.norm>
0.0202729

>  <SCORE.SYSTEM>
0

>  <SCORE.SYSTEM.CONST>
0

>  <SCORE.SYSTEM.DIHEDRAL>
0

>  <SCORE.SYSTEM.norm>
0

>  <SCORE.heavy>
23

>  <SCORE.norm>
-0.772419

$$$$
design_2
 OpenBabel05252019093D

 27 29  0  0  0  0  0  0  0  0999 V2000
   44.1384  -42.7536    1.9385 O   0  0  0  0  0  0  0  0  0  0  0  0
   43.7391  -42.9739    0.7703 C   0  0  0  0  0  0  0  0  0  0  0  0
   44.0077  -44.2657    0.2596 N   0  0  0  0  0  0  0  0  0  0  0  0
   44.7265  -45.2477    1.0879 C   0  0  0  0  0  0  0  0  0  0  0  0
   43.7380  -45.9757    1.9262 C   0  0  0  0  0  0  0  0  0  0  0  0
   43.2075  -45.3068    3.1252 C   0  0  0  0  0  0  0  0  0  0  0  0
   42.2803  -45.9010    3.9977 N   0  0  0  0  0  0  0  0  0  0  0  0
   42.2612  -45.9808    5.3981 C   0  0  0  0  0  0  0  0  0  0  0  0
   43.1285  -45.5040    6.1265 O   0  0  0  0  0  0  0  0  0  0  0  0
   41.1189  -46.6770    6.0529 C   0  0  0  0  0  0  0  0  0  0  0  0
   40.4223  -47.6313    5.3331 C   0  0  0  0  0  0  0  0  0  0  0  0
   39.4345  -48.3277    5.9888 C   0  0  0  0  0  0  0  0  0  0  0  0
   39.1544  -48.0801    7.3095 C   0  0  0  0  0  0  0  0  0  0  0  0
   39.8603  -47.1277    7.9901 C   0  0  0  0  0  0  0  0  0  0  0  0
   39.5714  -46.8413    9.3263 C   0  0  0  0  0  0  0  0  0  0  0  0
   40.2337  -45.8755   10.0457 C   0  0  0  0  0  0  0  0  0  0  0  0
   41.2267  -45.1656    9.4050 C   0  0  0  0  0  0  0  0  0  0  0  0
   41.5493  -45.4119    8.0894 C   0  0  0  0  0  0  0  0  0  0  0  0
   40.8797  -46.3838    7.3770 C   0  0  0  0  0  0  0  0  0  0  0  0
   43.0725  -41.9652    0.0539 N   0  0  0  0  0  0  0  0  0  0  0  0
   42.8173  -40.6558    0.5217 C   0  0  0  0  0  0  0  0  0  0  0  0
   43.8555  -39.7221    0.4035 C   0  0  0  0  0  0  0  0  0  0  0  0
   43.7084  -38.4332    0.8413 C   0  0  0  0  0  0  0  0  0  0  0  0
   42.5257  -37.9767    1.4245 C   0  0  0  0  0  0  0  0  0  0  0  0
   42.4032  -36.6940    1.8498 F   0  0  0  0  0  0  0  0  0  0  0  0
   41.5076  -38.8888    1.5409 C   0  0  0  0  0  0  0  0  0  0  0  0
   41.6665  -40.2027    1.0933 C   0  0  0  0  0  0  0  0  0  0  0  0
  1  2  2  0  0  0  0
  2  3  1  0  0  0  0
  2 20  1  0  0  0  0
  3  4  1  0  0  0  0
  4  5  1  0  0  0  0
  5  6  1  0  0  0  0
  6  7  1  0  0  0  0
  7  8  1  0  0  0  0
  8  9  2  0  0  0  0
  8 10  1  0  0  0  0
 10 11  2  0  0  0  0
 11 12  1  0  0  0  0
 12 13  2  0  0  0  0
 13 14  1  0  0  0  0
 14 15  2  0  0  0  0
 15 16  1  0  0  0  0
 16 17  2  0  0  0  0
 17 18  1  0  0  0  0
 18 19  2  0  0  0  0
 19 10  1  0  0  0  0
 19 14  1  0  0  0  0
 20 21  1  0  0  0  0
 21 22  2  0  0  0  0
 22 23  1  0  0  0  0
 23 24  2  0  0  0  0
 24 25  1  0  0  0  0
 24 26  1  0  0  0  0
 26 27  2  0  0  0  0
 27 21  1  0  0  0  0
M  END
>  <CHROM.1>
87.08123785,-78.02224347,-179.36840626,133.15709891,24.57679684,82.44155896
42.14501283,-43.82681595,3.94174829,-0.96744914,-1.10705910,2.92667500

>  <Name>
design_2

>  <RI>
0

>  <Rbt.Current_Directory>
/home/ziqiaoxu/icml18-jtnn/VAEdesign

>  <Rbt.Executable>
rbdock ($Id: //depot/dev/client3/rdock/2013.1/src/exe/rbdock.cxx#4 $)

>  <Rbt.Library>
libRbt.so (2013.1, Build901 2013/11/27)

>  <Rbt.Parameter_File>
/export/apps/rDock/src/rDock_2013.1_src//data/scripts/dock.prm

>  <Rbt.Receptor>
/home/ziqiaoxu/icml18-jtnn/VAEdesign/targets/RdRp-SARS-CoV-2/pocket_docking.prm

>  <SCORE>
-19.433

>  <SCORE.INTER>
-23.8777

>  <SCORE.INTER.CONST>
1

>  <SCORE.INTER.POLAR>
-2.73159

>  <SCORE.INTER.REPUL>
0

>  <SCORE.INTER.ROT>
6

>  <SCORE.INTER.VDW>
-25.9903

>  <SCORE.INTER.norm>
-0.88436

>  <SCORE.INTRA>
4.44473

>  <SCORE.INTRA.DIHEDRAL>
4.65616

>  <SCORE.INTRA.DIHEDRAL.0>
13.3494

>  <SCORE.INTRA.POLAR>
0

>  <SCORE.INTRA.POLAR.0>
0

>  <SCORE.INTRA.REPUL>
0

>  <SCORE.INTRA.REPUL.0>
0

>  <SCORE.INTRA.VDW>
2.11665

>  <SCORE.INTRA.VDW.0>
-1.7333

>  <SCORE.INTRA.norm>
0.164619

>  <SCORE.RESTR>
0

>  <SCORE.RESTR.CAVITY>
0

>  <SCORE.RESTR.norm>
0

>  <SCORE.SYSTEM>
0

>  <SCORE.SYSTEM.CONST>
0

>  <SCORE.SYSTEM.DIHEDRAL>
0

>  <SCORE.SYSTEM.norm>
0

>  <SCORE.heavy>
27

>  <SCORE.norm>
-0.719741

$$$$
design_19
 OpenBabel05252019093D

 21 23  0  0  0  0  0  0  0  0999 V2000
   43.0370  -39.9732    0.4000 O   0  0  0  0  0  0  0  0  0  0  0  0
   41.9706  -40.4435    0.8494 C   0  0  0  0  0  0  0  0  0  0  0  0
   41.8107  -41.8531    0.8889 N   0  0  0  0  0  0  0  0  0  0  0  0
   42.8416  -42.7253    0.4019 C   0  0  0  0  0  0  0  0  0  0  0  0
   43.0446  -43.8730    1.3059 C   0  0  0  0  0  0  0  0  0  0  0  0
   43.9331  -44.8805    0.6431 C   0  0  0  0  0  0  0  0  0  0  0  0
   45.2889  -45.0242    0.7274 C   0  0  0  0  0  0  0  0  0  0  0  0
   45.8488  -46.0265    0.0207 C   0  0  0  0  0  0  0  0  0  0  0  0
   45.0085  -46.8128   -0.7199 C   0  0  0  0  0  0  0  0  0  0  0  0
   43.4759  -46.1354   -0.4101 S   0  0  0  0  0  0  0  0  0  0  0  0
   40.9415  -39.5639    1.3111 N   0  0  0  0  0  0  0  0  0  0  0  0
   40.9672  -38.1570    1.3875 C   0  0  0  0  0  0  0  0  0  0  0  0
   41.0188  -37.4878    2.7186 C   0  0  0  0  0  0  0  0  0  0  0  0
   39.7948  -37.8472    3.5609 C   0  0  0  0  0  0  0  0  0  0  0  0
   40.1319  -38.1184    5.0035 C   0  0  0  0  0  0  0  0  0  0  0  0
   40.5321  -39.3429    5.4268 C   0  0  0  0  0  0  0  0  0  0  0  0
   40.7967  -39.4813    6.7653 C   0  0  0  0  0  0  0  0  0  0  0  0
   40.4864  -37.9305    7.3880 S   0  0  0  0  0  0  0  0  0  0  0  0
   40.0317  -37.1399    5.9597 C   0  0  0  0  0  0  0  0  0  0  0  0
   42.3590  -37.6865    3.3991 C   0  0  0  0  0  0  0  0  0  0  0  0
   41.8107  -36.3309    3.1372 C   0  0  0  0  0  0  0  0  0  0  0  0
  1  2  2  0  0  0  0
  2  3  1  0  0  0  0
  2 11  1  0  0  0  0
  3  4  1  0  0  0  0
  4  5  1  0  0  0  0
  5  6  1  0  0  0  0
  6  7  2  0  0  0  0
  7  8  1  0  0  0  0
  8  9  2  0  0  0  0
  9 10  1  0  0  0  0
 10  6  1  0  0  0  0
 11 12  1  0  0  0  0
 12 13  1  0  0  0  0
 13 14  1  0  0  0  0
 13 20  1  0  0  0  0
 14 15  1  0  0  0  0
 15 16  1  0  0  0  0
 16 17  2  0  0  0  0
 17 18  1  0  0  0  0
 18 19  1  0  0  0  0
 19 15  2  0  0  0  0
 20 21  1  0  0  0  0
 21 13  1  0  0  0  0
M  END
>  <CHROM.1>
137.32184174,169.48407131,93.54967153,-109.88269370,-60.58426958,138.34617938
-85.72918900,42.12042548,-40.92337027,2.48475006,0.12872574,1.20087654,-1.10113357

>  <Name>
design_19

>  <RI>
0

>  <Rbt.Current_Directory>
/home/ziqiaoxu/icml18-jtnn/VAEdesign

>  <Rbt.Executable>
rbdock ($Id: //depot/dev/client3/rdock/2013.1/src/exe/rbdock.cxx#4 $)

>  <Rbt.Library>
libRbt.so (2013.1, Build901 2013/11/27)

>  <Rbt.Parameter_File>
/export/apps/rDock/src/rDock_2013.1_src//data/scripts/dock.prm

>  <Rbt.Receptor>
/home/ziqiaoxu/icml18-jtnn/VAEdesign/targets/RdRp-SARS-CoV-2/pocket_docking.prm

>  <SCORE>
-20.1609

>  <SCORE.INTER>
-20.0026

>  <SCORE.INTER.CONST>
1

>  <SCORE.INTER.POLAR>
-1.88655

>  <SCORE.INTER.REPUL>
0

>  <SCORE.INTER.ROT>
7

>  <SCORE.INTER.VDW>
-25.9883

>  <SCORE.INTER.norm>
-0.952503

>  <SCORE.INTRA>
-0.158348

>  <SCORE.INTRA.DIHEDRAL>
2.76086

>  <SCORE.INTRA.DIHEDRAL.0>
6.54401

>  <SCORE.INTRA.POLAR>
0

>  <SCORE.INTRA.POLAR.0>
0

>  <SCORE.INTRA.REPUL>
0

>  <SCORE.INTRA.REPUL.0>
0

>  <SCORE.INTRA.VDW>
-1.53878

>  <SCORE.INTRA.VDW.0>
0.4827

>  <SCORE.INTRA.norm>
-0.00754036

>  <SCORE.RESTR>
0

>  <SCORE.RESTR.CAVITY>
0

>  <SCORE.RESTR.norm>
0

>  <SCORE.SYSTEM>
0

>  <SCORE.SYSTEM.CONST>
0

>  <SCORE.SYSTEM.DIHEDRAL>
0

>  <SCORE.SYSTEM.norm>
0

>  <SCORE.heavy>
21

>  <SCORE.norm>
-0.960043

$$$$
design_2
 OpenBabel05252019093D

 25 27  0  0  0  0  0  0  0  0999 V2000
   38.7446  -48.8850    6.4213 C   0  0  0  0  0  0  0  0  0  0  0  0
   38.9558  -47.8445    7.4883 C   0  0  0  0  0  0  0  0  0  0  0  0
   40.0473  -47.1820    7.8051 N   0  0  0  0  0  0  0  0  0  0  0  0
   40.0200  -46.3158    8.7708 C   0  0  0  0  0  0  0  0  0  0  0  0
   41.2297  -45.5477    9.1589 C   0  0  0  0  0  0  0  0  0  0  0  0
   41.3131  -44.9136   10.3756 C   0  0  0  0  0  0  0  0  0  0  0  0
   42.4140  -44.1949   10.7680 C   0  0  0  0  0  0  0  0  0  0  0  0
   43.4815  -44.1050    9.9053 C   0  0  0  0  0  0  0  0  0  0  0  0
   43.4545  -44.7221    8.6684 C   0  0  0  0  0  0  0  0  0  0  0  0
   44.5830  -44.6277    7.7478 C   0  0  0  0  0  0  0  0  0  0  0  0
   44.7065  -45.1355    6.4823 C   0  0  0  0  0  0  0  0  0  0  0  0
   45.9806  -44.7924    5.9653 C   0  0  0  0  0  0  0  0  0  0  0  0
   46.4061  -45.2398    4.6253 C   0  0  0  0  0  0  0  0  0  0  0  0
   45.5077  -45.2408    3.7270 O   0  0  0  0  0  0  0  0  0  0  0  0
   47.7069  -45.6424    4.3169 N   0  0  0  0  0  0  0  0  0  0  0  0
   48.2634  -46.1271    3.0964 C   0  0  0  0  0  0  0  0  0  0  0  0
   47.4320  -46.8223    2.1119 C   0  0  0  0  0  0  0  0  0  0  0  0
   48.0335  -47.2213    0.8128 C   0  0  0  0  0  0  0  0  0  0  0  0
   46.9074  -48.1153    2.7656 C   0  0  0  0  0  0  0  0  0  0  0  0
   46.5966  -44.1008    6.9001 N   0  0  0  0  0  0  0  0  0  0  0  0
   47.9536  -43.5440    6.8742 C   0  0  0  0  0  0  0  0  0  0  0  0
   45.7697  -43.9840    7.9959 C   0  0  0  0  0  0  0  0  0  0  0  0
   42.3150  -45.4360    8.3242 C   0  0  0  0  0  0  0  0  0  0  0  0
   38.8259  -46.1344    9.4239 C   0  0  0  0  0  0  0  0  0  0  0  0
   37.8111  -47.2368    8.5931 S   0  0  0  0  0  0  0  0  0  0  0  0
  1  2  1  0  0  0  0
  2  3  2  0  0  0  0
  3  4  1  0  0  0  0
  4  5  1  0  0  0  0
  4 24  2  0  0  0  0
  5  6  2  0  0  0  0
  6  7  1  0  0  0  0
  7  8  2  0  0  0  0
  8  9  1  0  0  0  0
  9 10  1  0  0  0  0
  9 23  2  0  0  0  0
 10 11  1  0  0  0  0
 11 12  2  0  0  0  0
 12 13  1  0  0  0  0
 12 20  1  0  0  0  0
 13 14  2  0  0  0  0
 13 15  1  0  0  0  0
 15 16  1  0  0  0  0
 16 17  1  0  0  0  0
 17 18  1  0  0  0  0
 17 19  1  0  0  0  0
 20 21  1  0  0  0  0
 20 22  1  0  0  0  0
 22 10  2  0  0  0  0
 23  5  1  0  0  0  0
 24 25  1  0  0  0  0
 25  2  1  0  0  0  0
M  END
>  <CHROM.1>
-162.28828604,-177.74922132,38.16078141,-27.23160721,175.57578643,43.55982086
-45.83238055,6.74655968,2.71577966,0.40312557,0.98995828

>  <Name>
design_2

>  <RI>
0

>  <Rbt.Current_Directory>
/home/ziqiaoxu/icml18-jtnn/VAEdesign

>  <Rbt.Executable>
rbdock ($Id: //depot/dev/client3/rdock/2013.1/src/exe/rbdock.cxx#4 $)

>  <Rbt.Library>
libRbt.so (2013.1, Build901 2013/11/27)

>  <Rbt.Parameter_File>
/export/apps/rDock/src/rDock_2013.1_src//data/scripts/dock.prm

>  <Rbt.Receptor>
/home/ziqiaoxu/icml18-jtnn/VAEdesign/targets/RdRp-SARS-CoV-2/pocket_docking.prm

>  <SCORE>
-17.7588

>  <SCORE.INTER>
-17.5133

>  <SCORE.INTER.CONST>
1

>  <SCORE.INTER.POLAR>
-0.566278

>  <SCORE.INTER.REPUL>
0

>  <SCORE.INTER.ROT>
5

>  <SCORE.INTER.VDW>
-25.988

>  <SCORE.INTER.norm>
-0.700532

>  <SCORE.INTRA>
-0.24547

>  <SCORE.INTRA.DIHEDRAL>
0.172071

>  <SCORE.INTRA.DIHEDRAL.0>
6.37972

>  <SCORE.INTRA.POLAR>
0

>  <SCORE.INTRA.POLAR.0>
0

>  <SCORE.INTRA.REPUL>
0

>  <SCORE.INTRA.REPUL.0>
0

>  <SCORE.INTRA.VDW>
-0.331505

>  <SCORE.INTRA.VDW.0>
-0.586766

>  <SCORE.INTRA.norm>
-0.00981879

>  <SCORE.RESTR>
0

>  <SCORE.RESTR.CAVITY>
0

>  <SCORE.RESTR.norm>
0

>  <SCORE.SYSTEM>
0

>  <SCORE.SYSTEM.CONST>
0

>  <SCORE.SYSTEM.DIHEDRAL>
0

>  <SCORE.SYSTEM.norm>
0

>  <SCORE.heavy>
25

>  <SCORE.norm>
-0.710351

$$$$
design_4
 OpenBabel05252019093D

 23 25  0  0  0  0  0  0  0  0999 V2000
   39.2400  -48.4827    6.5909 C   0  0  0  0  0  0  0  0  0  0  0  0
   39.7523  -47.4790    7.5886 C   0  0  0  0  0  0  0  0  0  0  0  0
   40.9876  -46.8758    7.4151 C   0  0  0  0  0  0  0  0  0  0  0  0
   41.4440  -45.9551    8.3404 C   0  0  0  0  0  0  0  0  0  0  0  0
   42.7404  -45.3129    8.1612 C   0  0  0  0  0  0  0  0  0  0  0  0
   43.1568  -44.5366    9.0408 O   0  0  0  0  0  0  0  0  0  0  0  0
   43.5111  -45.5619    7.0168 N   0  0  0  0  0  0  0  0  0  0  0  0
   44.8155  -44.9195    6.8358 C   0  0  0  0  0  0  0  0  0  0  0  0
   45.3299  -45.2254    5.4544 C   0  0  0  0  0  0  0  0  0  0  0  0
   46.6545  -45.3987    5.0959 C   0  0  0  0  0  0  0  0  0  0  0  0
   46.6381  -45.6508    3.7839 N   0  0  0  0  0  0  0  0  0  0  0  0
   45.4187  -45.6466    3.3095 N   0  0  0  0  0  0  0  0  0  0  0  0
   44.9755  -45.8673    1.9639 C   0  0  0  0  0  0  0  0  0  0  0  0
   45.8756  -46.2250    0.9840 C   0  0  0  0  0  0  0  0  0  0  0  0
   45.4464  -46.4435   -0.3306 C   0  0  0  0  0  0  0  0  0  0  0  0
   44.1234  -46.3106   -0.6899 C   0  0  0  0  0  0  0  0  0  0  0  0
   43.2279  -45.9526    0.2936 C   0  0  0  0  0  0  0  0  0  0  0  0
   43.6530  -45.7355    1.5990 C   0  0  0  0  0  0  0  0  0  0  0  0
   44.5843  -45.3847    4.3283 C   0  0  0  0  0  0  0  0  0  0  0  0
   40.6599  -45.6284    9.4572 C   0  0  0  0  0  0  0  0  0  0  0  0
   39.4740  -46.2236    9.6014 N   0  0  0  0  0  0  0  0  0  0  0  0
   39.0357  -47.1147    8.7024 C   0  0  0  0  0  0  0  0  0  0  0  0
   37.9095  -47.6663    8.8582 O   0  0  0  0  0  0  0  0  0  0  0  0
  1  2  1  0  0  0  0
  2  3  2  0  0  0  0
  3  4  1  0  0  0  0
  4  5  1  0  0  0  0
  4 20  2  0  0  0  0
  5  6  2  0  0  0  0
  5  7  1  0  0  0  0
  7  8  1  0  0  0  0
  8  9  1  0  0  0  0
  9 10  1  0  0  0  0
 10 11  2  0  0  0  0
 11 12  1  0  0  0  0
 12 13  1  0  0  0  0
 12 19  1  0  0  0  0
 13 14  2  0  0  0  0
 14 15  1  0  0  0  0
 15 16  2  0  0  0  0
 16 17  1  0  0  0  0
 17 18  2  0  0  0  0
 18 13  1  0  0  0  0
 19  9  2  0  0  0  0
 20 21  1  0  0  0  0
 21 22  1  0  0  0  0
 22 23  2  0  0  0  0
 22  2  1  0  0  0  0
M  END
>  <CHROM.1>
-176.56292845,-172.72971100,-146.50705393,4.86283860,42.93147186,-46.07659161
5.44790472,2.25332749,0.39118623,1.37118391

>  <Name>
design_4

>  <RI>
0

>  <Rbt.Current_Directory>
/home/ziqiaoxu/icml18-jtnn/VAEdesign

>  <Rbt.Executable>
rbdock ($Id: //depot/dev/client3/rdock/2013.1/src/exe/rbdock.cxx#4 $)

>  <Rbt.Library>
libRbt.so (2013.1, Build901 2013/11/27)

>  <Rbt.Parameter_File>
/export/apps/rDock/src/rDock_2013.1_src//data/scripts/dock.prm

>  <Rbt.Receptor>
/home/ziqiaoxu/icml18-jtnn/VAEdesign/targets/RdRp-SARS-CoV-2/pocket_docking.prm

>  <SCORE>
-21.4245

>  <SCORE.INTER>
-20.0539

>  <SCORE.INTER.CONST>
1

>  <SCORE.INTER.POLAR>
-1.0198

>  <SCORE.INTER.REPUL>
0

>  <SCORE.INTER.ROT>
4

>  <SCORE.INTER.VDW>
-25.9865

>  <SCORE.INTER.norm>
-0.871907

>  <SCORE.INTRA>
-1.37058

>  <SCORE.INTRA.DIHEDRAL>
-5.41416

>  <SCORE.INTRA.DIHEDRAL.0>
8.09091

>  <SCORE.INTRA.POLAR>
0

>  <SCORE.INTRA.POLAR.0>
0

>  <SCORE.INTRA.REPUL>
0

>  <SCORE.INTRA.REPUL.0>
0

>  <SCORE.INTRA.VDW>
1.3365

>  <SCORE.INTRA.VDW.0>
-1.20897

>  <SCORE.INTRA.norm>
-0.0595905

>  <SCORE.RESTR>
0

>  <SCORE.RESTR.CAVITY>
0

>  <SCORE.RESTR.norm>
0

>  <SCORE.SYSTEM>
0

>  <SCORE.SYSTEM.CONST>
0

>  <SCORE.SYSTEM.DIHEDRAL>
0

>  <SCORE.SYSTEM.norm>
0

>  <SCORE.heavy>
23

>  <SCORE.norm>
-0.931498

$$$$
design_14
 OpenBabel05252019093D

 23 24  0  0  0  0  0  0  0  0999 V2000
   39.0475  -48.8726    6.8140 C   0  0  0  0  0  0  0  0  0  0  0  0
   39.5515  -47.7660    7.6436 C   0  0  0  0  0  0  0  0  0  0  0  0
   40.7625  -47.1279    7.3855 C   0  0  0  0  0  0  0  0  0  0  0  0
   41.2061  -46.1011    8.1745 C   0  0  0  0  0  0  0  0  0  0  0  0
   40.4513  -45.6881    9.2385 C   0  0  0  0  0  0  0  0  0  0  0  0
   40.9360  -44.3833   10.3043 S   0  0  0  0  0  0  0  0  0  0  0  0
   41.3555  -44.9383   11.6422 O   0  0  0  0  0  0  0  0  0  0  0  0
   42.0895  -43.6360    9.6939 O   0  0  0  0  0  0  0  0  0  0  0  0
   39.6414  -43.2459   10.4803 N   0  0  0  0  0  0  0  0  0  0  0  0
   39.4958  -42.5688    9.2008 C   0  0  0  0  0  0  0  0  0  0  0  0
   39.7339  -41.1010    9.2935 C   0  0  0  0  0  0  0  0  0  0  0  0
   39.7302  -40.4176    7.9612 C   0  0  0  0  0  0  0  0  0  0  0  0
   39.7194  -41.1709    6.9806 O   0  0  0  0  0  0  0  0  0  0  0  0
   39.7385  -39.0246    7.8362 N   0  0  0  0  0  0  0  0  0  0  0  0
   39.7470  -38.3701    6.5816 C   0  0  0  0  0  0  0  0  0  0  0  0
   39.9586  -36.9891    6.5273 C   0  0  0  0  0  0  0  0  0  0  0  0
   40.0070  -36.3134    5.3425 C   0  0  0  0  0  0  0  0  0  0  0  0
   39.8450  -36.9950    4.1595 C   0  0  0  0  0  0  0  0  0  0  0  0
   39.6373  -38.3430    4.1761 C   0  0  0  0  0  0  0  0  0  0  0  0
   39.4788  -39.0112    3.0236 F   0  0  0  0  0  0  0  0  0  0  0  0
   39.5922  -39.0156    5.4116 C   0  0  0  0  0  0  0  0  0  0  0  0
   39.2451  -46.3155    9.5048 C   0  0  0  0  0  0  0  0  0  0  0  0
   38.7951  -47.3487    8.7138 C   0  0  0  0  0  0  0  0  0  0  0  0
  1  2  1  0  0  0  0
  2  3  2  0  0  0  0
  3  4  1  0  0  0  0
  4  5  2  0  0  0  0
  5  6  1  0  0  0  0
  5 22  1  0  0  0  0
  6  7  2  0  0  0  0
  6  8  2  0  0  0  0
  6  9  1  0  0  0  0
  9 10  1  0  0  0  0
 10 11  1  0  0  0  0
 11 12  1  0  0  0  0
 12 13  2  0  0  0  0
 12 14  1  0  0  0  0
 14 15  1  0  0  0  0
 15 16  2  0  0  0  0
 16 17  1  0  0  0  0
 17 18  2  0  0  0  0
 18 19  1  0  0  0  0
 19 20  1  0  0  0  0
 19 21  2  0  0  0  0
 21 15  1  0  0  0  0
 22 23  2  0  0  0  0
 23  2  1  0  0  0  0
M  END
>  <CHROM.1>
-107.64334525,-69.40668843,-118.50730204,173.87519148,-9.58675367,-170.36736229
40.05102172,-42.48121144,7.80472080,1.34931010,1.34362778,2.93147219

>  <Name>
design_14

>  <RI>
0

>  <Rbt.Current_Directory>
/home/ziqiaoxu/icml18-jtnn/VAEdesign

>  <Rbt.Executable>
rbdock ($Id: //depot/dev/client3/rdock/2013.1/src/exe/rbdock.cxx#4 $)

>  <Rbt.Library>
libRbt.so (2013.1, Build901 2013/11/27)

>  <Rbt.Parameter_File>
/export/apps/rDock/src/rDock_2013.1_src//data/scripts/dock.prm

>  <Rbt.Receptor>
/home/ziqiaoxu/icml18-jtnn/VAEdesign/targets/RdRp-SARS-CoV-2/pocket_docking.prm

>  <SCORE>
-19.1326

>  <SCORE.INTER>
-20.1838

>  <SCORE.INTER.CONST>
1

>  <SCORE.INTER.POLAR>
-1.65794

>  <SCORE.INTER.REPUL>
0.00652463

>  <SCORE.INTER.ROT>
6

>  <SCORE.INTER.VDW>
-25.9794

>  <SCORE.INTER.norm>
-0.877557

>  <SCORE.INTRA>
0.61013

>  <SCORE.INTRA.DIHEDRAL>
0.633726

>  <SCORE.INTRA.DIHEDRAL.0>
4.78979

>  <SCORE.INTRA.POLAR>
0

>  <SCORE.INTRA.POLAR.0>
0

>  <SCORE.INTRA.REPUL>
0

>  <SCORE.INTRA.REPUL.0>
0

>  <SCORE.INTRA.VDW>
0.293267

>  <SCORE.INTRA.VDW.0>
0.146861

>  <SCORE.INTRA.norm>
0.0265274

>  <SCORE.RESTR>
0.441027

>  <SCORE.RESTR.CAVITY>
0.441027

>  <SCORE.RESTR.norm>
0.0191751

>  <SCORE.SYSTEM>
0

>  <SCORE.SYSTEM.CONST>
0

>  <SCORE.SYSTEM.DIHEDRAL>
0

>  <SCORE.SYSTEM.norm>
0

>  <SCORE.heavy>
23

>  <SCORE.norm>
-0.831854

$$$$
design_19
 OpenBabel05252019093D

 26 28  0  0  0  0  0  0  0  0999 V2000
   43.2247  -41.4647    0.4299 C   0  0  0  0  0  0  0  0  0  0  0  0
   42.8067  -42.7879    0.9295 C   0  0  0  0  0  0  0  0  0  0  0  0
   43.5152  -43.9076    0.5695 C   0  0  0  0  0  0  0  0  0  0  0  0
   43.1282  -45.1656    1.0367 C   0  0  0  0  0  0  0  0  0  0  0  0
   42.0495  -45.2976    1.8507 C   0  0  0  0  0  0  0  0  0  0  0  0
   41.3134  -44.1668    2.2294 C   0  0  0  0  0  0  0  0  0  0  0  0
   40.1762  -44.3460    3.0933 C   0  0  0  0  0  0  0  0  0  0  0  0
   39.9267  -43.4988    4.0037 O   0  0  0  0  0  0  0  0  0  0  0  0
   39.3124  -45.4516    2.9610 N   0  0  0  0  0  0  0  0  0  0  0  0
   38.1888  -45.5942    3.8426 C   0  0  0  0  0  0  0  0  0  0  0  0
   38.5715  -46.3906    5.0212 C   0  0  0  0  0  0  0  0  0  0  0  0
   37.8122  -46.3604    6.0273 O   0  0  0  0  0  0  0  0  0  0  0  0
   39.7757  -47.1851    5.0373 N   0  0  0  0  0  0  0  0  0  0  0  0
   40.0606  -47.9298    6.2419 C   0  0  0  0  0  0  0  0  0  0  0  0
   40.1900  -47.0707    7.4259 C   0  0  0  0  0  0  0  0  0  0  0  0
   39.2533  -47.0167    8.3879 N   0  0  0  0  0  0  0  0  0  0  0  0
   39.3890  -46.2364    9.4478 N   0  0  0  0  0  0  0  0  0  0  0  0
   40.4627  -45.4570    9.6251 C   0  0  0  0  0  0  0  0  0  0  0  0
   40.5883  -44.7077   10.6472 O   0  0  0  0  0  0  0  0  0  0  0  0
   41.4727  -45.4501    8.6868 C   0  0  0  0  0  0  0  0  0  0  0  0
   42.5889  -44.6597    8.8405 C   0  0  0  0  0  0  0  0  0  0  0  0
   43.5716  -44.6853    7.8779 C   0  0  0  0  0  0  0  0  0  0  0  0
   43.4070  -45.5142    6.7713 C   0  0  0  0  0  0  0  0  0  0  0  0
   42.2990  -46.2974    6.6210 C   0  0  0  0  0  0  0  0  0  0  0  0
   41.3058  -46.2793    7.5818 C   0  0  0  0  0  0  0  0  0  0  0  0
   41.7050  -42.9514    1.7650 C   0  0  0  0  0  0  0  0  0  0  0  0
  1  2  1  0  0  0  0
  2  3  2  0  0  0  0
  3  4  1  0  0  0  0
  4  5  2  0  0  0  0
  5  6  1  0  0  0  0
  6  7  1  0  0  0  0
  6 26  2  0  0  0  0
  7  8  2  0  0  0  0
  7  9  1  0  0  0  0
  9 10  1  0  0  0  0
 10 11  1  0  0  0  0
 11 12  2  0  0  0  0
 11 13  1  0  0  0  0
 13 14  1  0  0  0  0
 14 15  1  0  0  0  0
 15 16  2  0  0  0  0
 16 17  1  0  0  0  0
 17 18  1  0  0  0  0
 18 19  2  0  0  0  0
 18 20  1  0  0  0  0
 20 21  2  0  0  0  0
 21 22  1  0  0  0  0
 22 23  2  0  0  0  0
 23 24  1  0  0  0  0
 24 25  2  0  0  0  0
 25 15  1  0  0  0  0
 25 20  1  0  0  0  0
 26  2  1  0  0  0  0
M  END
>  <CHROM.1>
141.72282930,-91.33024587,164.26780501,-59.37972174,107.19548723,40.94007621
-45.22858654,5.28853241,-1.31718247,0.49279701,1.76569812

>  <Name>
design_19

>  <RI>
0

>  <Rbt.Current_Directory>
/home/ziqiaoxu/icml18-jtnn/VAEdesign

>  <Rbt.Executable>
rbdock ($Id: //depot/dev/client3/rdock/2013.1/src/exe/rbdock.cxx#4 $)

>  <Rbt.Library>
libRbt.so (2013.1, Build901 2013/11/27)

>  <Rbt.Parameter_File>
/export/apps/rDock/src/rDock_2013.1_src//data/scripts/dock.prm

>  <Rbt.Receptor>
/home/ziqiaoxu/icml18-jtnn/VAEdesign/targets/RdRp-SARS-CoV-2/pocket_docking.prm

>  <SCORE>
-21.8531

>  <SCORE.INTER>
-21.8611

>  <SCORE.INTER.CONST>
1

>  <SCORE.INTER.POLAR>
-2.00871

>  <SCORE.INTER.REPUL>
0.108885

>  <SCORE.INTER.ROT>
5

>  <SCORE.INTER.VDW>
-25.9759

>  <SCORE.INTER.norm>
-0.840813

>  <SCORE.INTRA>
0.00807832

>  <SCORE.INTRA.DIHEDRAL>
4.91161

>  <SCORE.INTRA.DIHEDRAL.0>
4.456

>  <SCORE.INTRA.POLAR>
0

>  <SCORE.INTRA.POLAR.0>
0

>  <SCORE.INTRA.REPUL>
0

>  <SCORE.INTRA.REPUL.0>
0

>  <SCORE.INTRA.VDW>
-2.44773

>  <SCORE.INTRA.VDW.0>
-0.468763

>  <SCORE.INTRA.norm>
0.000310705

>  <SCORE.RESTR>
0

>  <SCORE.RESTR.CAVITY>
0

>  <SCORE.RESTR.norm>
0

>  <SCORE.SYSTEM>
0

>  <SCORE.SYSTEM.CONST>
0

>  <SCORE.SYSTEM.DIHEDRAL>
0

>  <SCORE.SYSTEM.norm>
0

>  <SCORE.heavy>
26

>  <SCORE.norm>
-0.840502

$$$$
design_2
 OpenBabel05252019093D

 24 26  0  0  0  0  0  0  0  0999 V2000
   44.1487  -46.0166    0.1839 C   0  0  0  0  0  0  0  0  0  0  0  0
   44.5268  -45.9234    1.5233 O   0  0  0  0  0  0  0  0  0  0  0  0
   45.6936  -46.4436    2.0444 C   0  0  0  0  0  0  0  0  0  0  0  0
   46.5546  -47.1542    1.3155 N   0  0  0  0  0  0  0  0  0  0  0  0
   47.6948  -47.6600    1.8333 C   0  0  0  0  0  0  0  0  0  0  0  0
   48.0147  -47.4582    3.1486 C   0  0  0  0  0  0  0  0  0  0  0  0
   47.1305  -46.7186    3.9297 C   0  0  0  0  0  0  0  0  0  0  0  0
   45.9714  -46.2060    3.4011 C   0  0  0  0  0  0  0  0  0  0  0  0
   45.0178  -45.3883    4.1787 C   0  0  0  0  0  0  0  0  0  0  0  0
   45.2605  -45.4331    5.5824 N   0  0  0  0  0  0  0  0  0  0  0  0
   44.8315  -44.3902    6.4466 C   0  0  0  0  0  0  0  0  0  0  0  0
   44.2197  -43.3698    5.9759 O   0  0  0  0  0  0  0  0  0  0  0  0
   45.0469  -44.4120    7.8427 N   0  0  0  0  0  0  0  0  0  0  0  0
   44.6030  -43.3420    8.7058 C   0  0  0  0  0  0  0  0  0  0  0  0
   44.0327  -43.8708    9.9998 C   0  0  0  0  0  0  0  0  0  0  0  0
   42.7704  -44.6160    9.6511 C   0  0  0  0  0  0  0  0  0  0  0  0
   42.5315  -45.4085    8.6263 N   0  0  0  0  0  0  0  0  0  0  0  0
   41.3646  -45.9718    8.4889 C   0  0  0  0  0  0  0  0  0  0  0  0
   40.9752  -46.8337    7.4512 C   0  0  0  0  0  0  0  0  0  0  0  0
   39.7355  -47.3634    7.4065 C   0  0  0  0  0  0  0  0  0  0  0  0
   38.7648  -47.1066    8.3599 C   0  0  0  0  0  0  0  0  0  0  0  0
   39.1351  -46.2617    9.3836 C   0  0  0  0  0  0  0  0  0  0  0  0
   40.4185  -45.7056    9.4415 C   0  0  0  0  0  0  0  0  0  0  0  0
   41.2707  -44.6536   10.4845 S   0  0  0  0  0  0  0  0  0  0  0  0
  1  2  1  0  0  0  0
  2  3  1  0  0  0  0
  3  4  2  0  0  0  0
  4  5  1  0  0  0  0
  5  6  2  0  0  0  0
  6  7  1  0  0  0  0
  7  8  2  0  0  0  0
  8  9  1  0  0  0  0
  8  3  1  0  0  0  0
  9 10  1  0  0  0  0
 10 11  1  0  0  0  0
 11 12  2  0  0  0  0
 11 13  1  0  0  0  0
 13 14  1  0  0  0  0
 14 15  1  0  0  0  0
 15 16  1  0  0  0  0
 16 17  2  0  0  0  0
 17 18  1  0  0  0  0
 18 19  2  0  0  0  0
 19 20  1  0  0  0  0
 20 21  2  0  0  0  0
 21 22  1  0  0  0  0
 22 23  2  0  0  0  0
 23 24  1  0  0  0  0
 23 18  1  0  0  0  0
 24 16  1  0  0  0  0
M  END
>  <CHROM.1>
-3.41947734,168.44350392,156.06931161,139.51596453,-66.49905664,39.81540324
43.64967171,-45.64822825,6.23848686,0.91822549,-0.35277858,-1.98926787

>  <Name>
design_2

>  <RI>
0

>  <Rbt.Current_Directory>
/home/ziqiaoxu/icml18-jtnn/VAEdesign

>  <Rbt.Executable>
rbdock ($Id: //depot/dev/client3/rdock/2013.1/src/exe/rbdock.cxx#4 $)

>  <Rbt.Library>
libRbt.so (2013.1, Build901 2013/11/27)

>  <Rbt.Parameter_File>
/export/apps/rDock/src/rDock_2013.1_src//data/scripts/dock.prm

>  <Rbt.Receptor>
/home/ziqiaoxu/icml18-jtnn/VAEdesign/targets/RdRp-SARS-CoV-2/pocket_docking.prm

>  <SCORE>
-21.0575

>  <SCORE.INTER>
-20.6542

>  <SCORE.INTER.CONST>
1

>  <SCORE.INTER.POLAR>
-1.78809

>  <SCORE.INTER.REPUL>
0

>  <SCORE.INTER.ROT>
6

>  <SCORE.INTER.VDW>
-25.9747

>  <SCORE.INTER.norm>
-0.860592

>  <SCORE.INTRA>
-0.403249

>  <SCORE.INTRA.DIHEDRAL>
0.18736

>  <SCORE.INTRA.DIHEDRAL.0>
4.47328

>  <SCORE.INTRA.POLAR>
0

>  <SCORE.INTRA.POLAR.0>
0

>  <SCORE.INTRA.REPUL>
0

>  <SCORE.INTRA.REPUL.0>
0

>  <SCORE.INTRA.VDW>
-0.496929

>  <SCORE.INTRA.VDW.0>
-0.43461

>  <SCORE.INTRA.norm>
-0.016802

>  <SCORE.RESTR>
0

>  <SCORE.RESTR.CAVITY>
0

>  <SCORE.RESTR.norm>
0

>  <SCORE.SYSTEM>
0

>  <SCORE.SYSTEM.CONST>
0

>  <SCORE.SYSTEM.DIHEDRAL>
0

>  <SCORE.SYSTEM.norm>
0

>  <SCORE.heavy>
24

>  <SCORE.norm>
-0.877394

$$$$
design_9
 OpenBabel05252019093D

 23 25  0  0  0  0  0  0  0  0999 V2000
   47.1229  -43.7612    6.5204 C   0  0  0  0  0  0  0  0  0  0  0  0
   45.7957  -44.2722    6.9569 C   0  0  0  0  0  0  0  0  0  0  0  0
   45.0825  -45.1830    6.2126 C   0  0  0  0  0  0  0  0  0  0  0  0
   43.8370  -45.6297    6.6726 C   0  0  0  0  0  0  0  0  0  0  0  0
   43.3159  -45.1712    7.8581 C   0  0  0  0  0  0  0  0  0  0  0  0
   42.0024  -45.6297    8.3628 C   0  0  0  0  0  0  0  0  0  0  0  0
   41.5895  -45.1569    9.4677 O   0  0  0  0  0  0  0  0  0  0  0  0
   41.1893  -46.5513    7.6966 N   0  0  0  0  0  0  0  0  0  0  0  0
   39.9132  -47.0109    8.1685 C   0  0  0  0  0  0  0  0  0  0  0  0
   39.2234  -47.9398    7.2378 C   0  0  0  0  0  0  0  0  0  0  0  0
   39.4486  -49.2439    7.0738 N   0  0  0  0  0  0  0  0  0  0  0  0
   38.6192  -49.6804    6.1530 N   0  0  0  0  0  0  0  0  0  0  0  0
   37.8863  -48.6639    5.7475 N   0  0  0  0  0  0  0  0  0  0  0  0
   38.2413  -47.5758    6.4038 N   0  0  0  0  0  0  0  0  0  0  0  0
   37.6748  -46.2521    6.2469 C   0  0  0  0  0  0  0  0  0  0  0  0
   38.3190  -45.1355    6.6731 C   0  0  0  0  0  0  0  0  0  0  0  0
   37.7300  -43.8890    6.4975 C   0  0  0  0  0  0  0  0  0  0  0  0
   36.5099  -43.7375    5.9044 C   0  0  0  0  0  0  0  0  0  0  0  0
   35.8605  -42.4102    5.7063 C   0  0  0  0  0  0  0  0  0  0  0  0
   35.8523  -44.8875    5.4684 C   0  0  0  0  0  0  0  0  0  0  0  0
   36.4408  -46.1348    5.6435 C   0  0  0  0  0  0  0  0  0  0  0  0
   44.0528  -44.2611    8.5794 C   0  0  0  0  0  0  0  0  0  0  0  0
   45.2670  -43.8169    8.1442 C   0  0  0  0  0  0  0  0  0  0  0  0
  1  2  1  0  0  0  0
  2  3  2  0  0  0  0
  3  4  1  0  0  0  0
  4  5  2  0  0  0  0
  5  6  1  0  0  0  0
  5 22  1  0  0  0  0
  6  7  2  0  0  0  0
  6  8  1  0  0  0  0
  8  9  1  0  0  0  0
  9 10  1  0  0  0  0
 10 11  2  0  0  0  0
 11 12  1  0  0  0  0
 12 13  2  0  0  0  0
 13 14  1  0  0  0  0
 14 15  1  0  0  0  0
 14 10  1  0  0  0  0
 15 16  2  0  0  0  0
 16 17  1  0  0  0  0
 17 18  2  0  0  0  0
 18 19  1  0  0  0  0
 18 20  1  0  0  0  0
 20 21  2  0  0  0  0
 21 15  1  0  0  0  0
 22 23  2  0  0  0  0
 23  2  1  0  0  0  0
M  END
>  <CHROM.1>
-179.93101319,177.12955220,79.97370407,18.47419745,40.47492402,-45.75308504
6.93944999,0.16781588,-0.17963837,-0.06490823

>  <Name>
design_9

>  <RI>
0

>  <Rbt.Current_Directory>
/home/ziqiaoxu/icml18-jtnn/VAEdesign

>  <Rbt.Executable>
rbdock ($Id: //depot/dev/client3/rdock/2013.1/src/exe/rbdock.cxx#4 $)

>  <Rbt.Library>
libRbt.so (2013.1, Build901 2013/11/27)

>  <Rbt.Parameter_File>
/export/apps/rDock/src/rDock_2013.1_src//data/scripts/dock.prm

>  <Rbt.Receptor>
/home/ziqiaoxu/icml18-jtnn/VAEdesign/targets/RdRp-SARS-CoV-2/pocket_docking.prm

>  <SCORE>
-19.964

>  <SCORE.INTER>
-16.4934

>  <SCORE.INTER.CONST>
1

>  <SCORE.INTER.POLAR>
0

>  <SCORE.INTER.REPUL>
0.0161734

>  <SCORE.INTER.ROT>
4

>  <SCORE.INTER.VDW>
-25.9743

>  <SCORE.INTER.norm>
-0.717105

>  <SCORE.INTRA>
-3.47057

>  <SCORE.INTRA.DIHEDRAL>
-10.3068

>  <SCORE.INTRA.DIHEDRAL.0>
14.1278

>  <SCORE.INTRA.POLAR>
0

>  <SCORE.INTRA.POLAR.0>
0

>  <SCORE.INTRA.REPUL>
0

>  <SCORE.INTRA.REPUL.0>
0

>  <SCORE.INTRA.VDW>
1.68281

>  <SCORE.INTRA.VDW.0>
-1.87331

>  <SCORE.INTRA.norm>
-0.150894

>  <SCORE.RESTR>
0

>  <SCORE.RESTR.CAVITY>
0

>  <SCORE.RESTR.norm>
0

>  <SCORE.SYSTEM>
0

>  <SCORE.SYSTEM.CONST>
0

>  <SCORE.SYSTEM.DIHEDRAL>
0

>  <SCORE.SYSTEM.norm>
0

>  <SCORE.heavy>
23

>  <SCORE.norm>
-0.867999

$$$$
design_11
 OpenBabel05252019093D

 28 31  0  0  0  0  0  0  0  0999 V2000
   39.6689  -48.4351    6.3480 C   0  0  0  0  0  0  0  0  0  0  0  0
   40.0651  -47.4867    7.4355 C   0  0  0  0  0  0  0  0  0  0  0  0
   39.2893  -47.3414    8.5543 C   0  0  0  0  0  0  0  0  0  0  0  0
   39.6395  -46.4743    9.5699 C   0  0  0  0  0  0  0  0  0  0  0  0
   40.7884  -45.7520    9.4411 C   0  0  0  0  0  0  0  0  0  0  0  0
   41.6208  -45.8616    8.3141 C   0  0  0  0  0  0  0  0  0  0  0  0
   42.8365  -45.0622    8.2340 C   0  0  0  0  0  0  0  0  0  0  0  0
   43.5928  -45.0198    7.0987 C   0  0  0  0  0  0  0  0  0  0  0  0
   44.7707  -44.2321    7.0187 C   0  0  0  0  0  0  0  0  0  0  0  0
   45.5209  -44.3648    5.7888 C   0  0  0  0  0  0  0  0  0  0  0  0
   45.6506  -43.2877    5.1148 O   0  0  0  0  0  0  0  0  0  0  0  0
   46.0745  -45.5732    5.3262 N   0  0  0  0  0  0  0  0  0  0  0  0
   46.8069  -45.5342    4.0478 C   0  0  0  0  0  0  0  0  0  0  0  0
   46.0581  -46.3804    3.0803 C   0  0  0  0  0  0  0  0  0  0  0  0
   45.6863  -45.7236    1.8626 N   0  0  0  0  0  0  0  0  0  0  0  0
   44.3202  -46.0221    1.5098 C   0  0  0  0  0  0  0  0  0  0  0  0
   43.8778  -45.0049    0.4822 C   0  0  0  0  0  0  0  0  0  0  0  0
   44.7778  -44.9757   -0.5775 O   0  0  0  0  0  0  0  0  0  0  0  0
   45.6788  -46.0392   -0.5215 C   0  0  0  0  0  0  0  0  0  0  0  0
   46.5321  -45.9563    0.7410 C   0  0  0  0  0  0  0  0  0  0  0  0
   45.1120  -43.5195    8.1189 C   0  0  0  0  0  0  0  0  0  0  0  0
   46.1400  -42.6741    8.3690 C   0  0  0  0  0  0  0  0  0  0  0  0
   47.2199  -42.2320    7.4530 C   0  0  0  0  0  0  0  0  0  0  0  0
   45.9677  -42.2390    9.6596 N   0  0  0  0  0  0  0  0  0  0  0  0
   44.9120  -42.7778   10.1537 O   0  0  0  0  0  0  0  0  0  0  0  0
   44.3301  -43.5673    9.2816 C   0  0  0  0  0  0  0  0  0  0  0  0
   43.2298  -44.3330    9.2941 N   0  0  0  0  0  0  0  0  0  0  0  0
   41.2269  -46.7347    7.3387 C   0  0  0  0  0  0  0  0  0  0  0  0
  1  2  1  0  0  0  0
  2  3  2  0  0  0  0
  3  4  1  0  0  0  0
  4  5  2  0  0  0  0
  5  6  1  0  0  0  0
  6  7  1  0  0  0  0
  6 28  2  0  0  0  0
  7  8  2  0  0  0  0
  8  9  1  0  0  0  0
  9 10  1  0  0  0  0
  9 21  2  0  0  0  0
 10 11  2  0  0  0  0
 10 12  1  0  0  0  0
 12 13  1  0  0  0  0
 13 14  1  0  0  0  0
 14 15  1  0  0  0  0
 15 16  1  0  0  0  0
 16 17  1  0  0  0  0
 17 18  1  0  0  0  0
 18 19  1  0  0  0  0
 19 20  1  0  0  0  0
 20 15  1  0  0  0  0
 21 22  1  0  0  0  0
 22 23  1  0  0  0  0
 22 24  2  0  0  0  0
 24 25  1  0  0  0  0
 25 26  1  0  0  0  0
 26 27  2  0  0  0  0
 26 21  1  0  0  0  0
 27  7  1  0  0  0  0
 28  2  1  0  0  0  0
M  END
>  <CHROM.1>
-172.37731591,119.31018440,-115.65688017,124.83771883,-135.36925898,44.04646970
-45.08163369,5.89798126,2.04229748,0.56554408,1.25476088

>  <Name>
design_11

>  <RI>
0

>  <Rbt.Current_Directory>
/home/ziqiaoxu/icml18-jtnn/VAEdesign

>  <Rbt.Executable>
rbdock ($Id: //depot/dev/client3/rdock/2013.1/src/exe/rbdock.cxx#4 $)

>  <Rbt.Library>
libRbt.so (2013.1, Build901 2013/11/27)

>  <Rbt.Parameter_File>
/export/apps/rDock/src/rDock_2013.1_src//data/scripts/dock.prm

>  <Rbt.Receptor>
/home/ziqiaoxu/icml18-jtnn/VAEdesign/targets/RdRp-SARS-CoV-2/pocket_docking.prm

>  <SCORE>
-18.3195

>  <SCORE.INTER>
-19.8126

>  <SCORE.INTER.CONST>
1

>  <SCORE.INTER.POLAR>
-1.24663

>  <SCORE.INTER.REPUL>
0

>  <SCORE.INTER.ROT>
5

>  <SCORE.INTER.VDW>
-25.9741

>  <SCORE.INTER.norm>
-0.707594

>  <SCORE.INTRA>
1.49315

>  <SCORE.INTRA.DIHEDRAL>
7.78701

>  <SCORE.INTRA.DIHEDRAL.0>
10.9103

>  <SCORE.INTRA.POLAR>
0

>  <SCORE.INTRA.POLAR.0>
0

>  <SCORE.INTRA.REPUL>
0

>  <SCORE.INTRA.REPUL.0>
0

>  <SCORE.INTRA.VDW>
-2.40036

>  <SCORE.INTRA.VDW.0>
0.945138

>  <SCORE.INTRA.norm>
0.0533267

>  <SCORE.RESTR>
0

>  <SCORE.RESTR.CAVITY>
0

>  <SCORE.RESTR.norm>
0

>  <SCORE.SYSTEM>
0

>  <SCORE.SYSTEM.CONST>
0

>  <SCORE.SYSTEM.DIHEDRAL>
0

>  <SCORE.SYSTEM.norm>
0

>  <SCORE.heavy>
28

>  <SCORE.norm>
-0.654268

$$$$
design_1
 OpenBabel05252019093D

 23 25  0  0  0  0  0  0  0  0999 V2000
   38.7076  -49.0446    6.4869 C   0  0  0  0  0  0  0  0  0  0  0  0
   39.3785  -48.0035    7.3243 C   0  0  0  0  0  0  0  0  0  0  0  0
   38.8728  -47.6346    8.5584 C   0  0  0  0  0  0  0  0  0  0  0  0
   39.5299  -46.6655    9.2968 C   0  0  0  0  0  0  0  0  0  0  0  0
   40.6770  -46.0592    8.8308 C   0  0  0  0  0  0  0  0  0  0  0  0
   41.1976  -46.4171    7.5959 C   0  0  0  0  0  0  0  0  0  0  0  0
   42.4126  -45.7912    7.0760 C   0  0  0  0  0  0  0  0  0  0  0  0
   42.9662  -45.9197    5.8789 N   0  0  0  0  0  0  0  0  0  0  0  0
   44.0927  -45.1731    5.7828 C   0  0  0  0  0  0  0  0  0  0  0  0
   45.0069  -45.0230    4.6470 C   0  0  0  0  0  0  0  0  0  0  0  0
   46.0084  -46.0357    4.5616 N   0  0  0  0  0  0  0  0  0  0  0  0
   46.4435  -46.5053    3.3023 C   0  0  0  0  0  0  0  0  0  0  0  0
   47.6319  -47.1652    3.0761 C   0  0  0  0  0  0  0  0  0  0  0  0
   48.0204  -47.6057    1.8415 C   0  0  0  0  0  0  0  0  0  0  0  0
   47.2142  -47.3994    0.7495 C   0  0  0  0  0  0  0  0  0  0  0  0
   46.0157  -46.7425    0.9325 C   0  0  0  0  0  0  0  0  0  0  0  0
   45.1311  -46.5050   -0.2096 C   0  0  0  0  0  0  0  0  0  0  0  0
   44.0500  -45.6036   -0.0644 N   0  0  0  0  0  0  0  0  0  0  0  0
   45.3666  -47.1106   -1.2721 O   0  0  0  0  0  0  0  0  0  0  0  0
   45.6442  -46.3040    2.2022 C   0  0  0  0  0  0  0  0  0  0  0  0
   44.2019  -44.5657    7.0154 C   0  0  0  0  0  0  0  0  0  0  0  0
   43.1705  -44.9674    7.7576 O   0  0  0  0  0  0  0  0  0  0  0  0
   40.5279  -47.3746    6.8921 C   0  0  0  0  0  0  0  0  0  0  0  0
  1  2  1  0  0  0  0
  2  3  2  0  0  0  0
  3  4  1  0  0  0  0
  4  5  2  0  0  0  0
  5  6  1  0  0  0  0
  6  7  1  0  0  0  0
  6 23  2  0  0  0  0
  7  8  2  0  0  0  0
  8  9  1  0  0  0  0
  9 10  1  0  0  0  0
  9 21  2  0  0  0  0
 10 11  1  0  0  0  0
 11 12  1  0  0  0  0
 12 13  2  0  0  0  0
 13 14  1  0  0  0  0
 14 15  2  0  0  0  0
 15 16  1  0  0  0  0
 16 17  1  0  0  0  0
 16 20  2  0  0  0  0
 17 18  1  0  0  0  0
 17 19  2  0  0  0  0
 20 12  1  0  0  0  0
 21 22  1  0  0  0  0
 22  7  1  0  0  0  0
 23  2  1  0  0  0  0
M  END
>  <CHROM.1>
-172.89844219,-84.93132799,144.57478152,160.18500273,-167.22396999,43.58145551
-46.49426448,4.65293179,2.33765564,0.36477299,1.26597942

>  <Name>
design_1

>  <RI>
0

>  <Rbt.Current_Directory>
/home/ziqiaoxu/icml18-jtnn/VAEdesign

>  <Rbt.Executable>
rbdock ($Id: //depot/dev/client3/rdock/2013.1/src/exe/rbdock.cxx#4 $)

>  <Rbt.Library>
libRbt.so (2013.1, Build901 2013/11/27)

>  <Rbt.Parameter_File>
/export/apps/rDock/src/rDock_2013.1_src//data/scripts/dock.prm

>  <Rbt.Receptor>
/home/ziqiaoxu/icml18-jtnn/VAEdesign/targets/RdRp-SARS-CoV-2/pocket_docking.prm

>  <SCORE>
-20.4578

>  <SCORE.INTER>
-21.8685

>  <SCORE.INTER.CONST>
1

>  <SCORE.INTER.POLAR>
-1.85359

>  <SCORE.INTER.REPUL>
0

>  <SCORE.INTER.ROT>
5

>  <SCORE.INTER.VDW>
-25.9663

>  <SCORE.INTER.norm>
-0.950806

>  <SCORE.INTRA>
1.41074

>  <SCORE.INTRA.DIHEDRAL>
3.10406

>  <SCORE.INTRA.DIHEDRAL.0>
2.64

>  <SCORE.INTRA.POLAR>
0

>  <SCORE.INTRA.POLAR.0>
0

>  <SCORE.INTRA.REPUL>
0

>  <SCORE.INTRA.REPUL.0>
0

>  <SCORE.INTRA.VDW>
-0.141287

>  <SCORE.INTRA.VDW.0>
0.247435

>  <SCORE.INTRA.norm>
0.0613366

>  <SCORE.RESTR>
0

>  <SCORE.RESTR.CAVITY>
0

>  <SCORE.RESTR.norm>
0

>  <SCORE.SYSTEM>
0

>  <SCORE.SYSTEM.CONST>
0

>  <SCORE.SYSTEM.DIHEDRAL>
0

>  <SCORE.SYSTEM.norm>
0

>  <SCORE.heavy>
23

>  <SCORE.norm>
-0.88947

$$$$
design_5
 OpenBabel05252019093D

 21 23  0  0  0  0  0  0  0  0999 V2000
   39.2834  -47.8532    7.5728 C   0  0  0  0  0  0  0  0  0  0  0  0
   40.0519  -46.8258    8.3430 C   0  0  0  0  0  0  0  0  0  0  0  0
   39.5410  -46.2971    9.5071 C   0  0  0  0  0  0  0  0  0  0  0  0
   40.2521  -45.3456   10.2211 C   0  0  0  0  0  0  0  0  0  0  0  0
   41.4593  -44.9312    9.7714 C   0  0  0  0  0  0  0  0  0  0  0  0
   42.0258  -45.4376    8.5909 C   0  0  0  0  0  0  0  0  0  0  0  0
   43.3328  -44.9570    8.1485 C   0  0  0  0  0  0  0  0  0  0  0  0
   43.8916  -44.0601    8.8540 O   0  0  0  0  0  0  0  0  0  0  0  0
   43.9301  -45.4767    6.9901 N   0  0  0  0  0  0  0  0  0  0  0  0
   45.2164  -44.9860    6.5779 C   0  0  0  0  0  0  0  0  0  0  0  0
   45.5033  -45.3338    5.1589 C   0  0  0  0  0  0  0  0  0  0  0  0
   44.6385  -45.4112    4.1283 N   0  0  0  0  0  0  0  0  0  0  0  0
   45.3386  -45.7557    3.0452 C   0  0  0  0  0  0  0  0  0  0  0  0
   44.8250  -45.9615    1.6806 C   0  0  0  0  0  0  0  0  0  0  0  0
   45.5030  -46.4110    0.5825 C   0  0  0  0  0  0  0  0  0  0  0  0
   44.8084  -46.5155   -0.5644 C   0  0  0  0  0  0  0  0  0  0  0  0
   43.4890  -46.1662   -0.5397 C   0  0  0  0  0  0  0  0  0  0  0  0
   43.2536  -45.7004    1.0866 S   0  0  0  0  0  0  0  0  0  0  0  0
   46.6205  -45.8826    3.4346 N   0  0  0  0  0  0  0  0  0  0  0  0
   46.7410  -45.6291    4.7216 N   0  0  0  0  0  0  0  0  0  0  0  0
   41.2852  -46.3745    7.9223 C   0  0  0  0  0  0  0  0  0  0  0  0
  1  2  1  0  0  0  0
  2  3  2  0  0  0  0
  3  4  1  0  0  0  0
  4  5  2  0  0  0  0
  5  6  1  0  0  0  0
  6  7  1  0  0  0  0
  6 21  2  0  0  0  0
  7  8  2  0  0  0  0
  7  9  1  0  0  0  0
  9 10  1  0  0  0  0
 10 11  1  0  0  0  0
 11 12  2  0  0  0  0
 12 13  1  0  0  0  0
 13 14  1  0  0  0  0
 13 19  2  0  0  0  0
 14 15  2  0  0  0  0
 15 16  1  0  0  0  0
 16 17  2  0  0  0  0
 17 18  1  0  0  0  0
 18 14  1  0  0  0  0
 19 20  1  0  0  0  0
 20 11  1  0  0  0  0
 21  2  1  0  0  0  0
M  END
>  <CHROM.1>
-1.65145233,-163.10548424,34.69542075,-174.56484301,43.39580408,-45.76607595
5.24468873,2.03036451,0.29306011,1.40252689

>  <Name>
design_5

>  <RI>
0

>  <Rbt.Current_Directory>
/home/ziqiaoxu/icml18-jtnn/VAEdesign

>  <Rbt.Executable>
rbdock ($Id: //depot/dev/client3/rdock/2013.1/src/exe/rbdock.cxx#4 $)

>  <Rbt.Library>
libRbt.so (2013.1, Build901 2013/11/27)

>  <Rbt.Parameter_File>
/export/apps/rDock/src/rDock_2013.1_src//data/scripts/dock.prm

>  <Rbt.Receptor>
/home/ziqiaoxu/icml18-jtnn/VAEdesign/targets/RdRp-SARS-CoV-2/pocket_docking.prm

>  <SCORE>
-17.8987

>  <SCORE.INTER>
-18.0501

>  <SCORE.INTER.CONST>
1

>  <SCORE.INTER.POLAR>
-0.436744

>  <SCORE.INTER.REPUL>
0

>  <SCORE.INTER.ROT>
4

>  <SCORE.INTER.VDW>
-25.9652

>  <SCORE.INTER.norm>
-0.859531

>  <SCORE.INTRA>
0.151415

>  <SCORE.INTRA.DIHEDRAL>
0.113774

>  <SCORE.INTRA.DIHEDRAL.0>
2.53561

>  <SCORE.INTRA.POLAR>
0

>  <SCORE.INTRA.POLAR.0>
0

>  <SCORE.INTRA.REPUL>
0

>  <SCORE.INTRA.REPUL.0>
0

>  <SCORE.INTRA.VDW>
0.0945282

>  <SCORE.INTRA.VDW.0>
-1.16709

>  <SCORE.INTRA.norm>
0.00721026

>  <SCORE.RESTR>
0

>  <SCORE.RESTR.CAVITY>
0

>  <SCORE.RESTR.norm>
0

>  <SCORE.SYSTEM>
0

>  <SCORE.SYSTEM.CONST>
0

>  <SCORE.SYSTEM.DIHEDRAL>
0

>  <SCORE.SYSTEM.norm>
0

>  <SCORE.heavy>
21

>  <SCORE.norm>
-0.852321

$$$$
design_5
 OpenBabel05252019093D

 27 29  0  0  0  0  0  0  0  0999 V2000
   43.9550  -43.4276    1.5751 O   0  0  0  0  0  0  0  0  0  0  0  0
   42.7132  -43.3039    1.6054 C   0  0  0  0  0  0  0  0  0  0  0  0
   42.0052  -44.4969    2.0333 N   0  0  0  0  0  0  0  0  0  0  0  0
   42.7659  -45.6726    2.3724 C   0  0  0  0  0  0  0  0  0  0  0  0
   43.0502  -45.7811    3.8337 C   0  0  0  0  0  0  0  0  0  0  0  0
   41.9918  -46.4690    4.5295 N   0  0  0  0  0  0  0  0  0  0  0  0
   41.7154  -46.4031    5.9000 C   0  0  0  0  0  0  0  0  0  0  0  0
   42.4720  -45.6659    6.6170 O   0  0  0  0  0  0  0  0  0  0  0  0
   40.6467  -47.0991    6.5695 C   0  0  0  0  0  0  0  0  0  0  0  0
   39.8731  -48.0471    5.9483 C   0  0  0  0  0  0  0  0  0  0  0  0
   38.8378  -48.7177    6.6057 C   0  0  0  0  0  0  0  0  0  0  0  0
   38.5655  -48.4329    7.9259 C   0  0  0  0  0  0  0  0  0  0  0  0
   39.3290  -47.4864    8.5659 C   0  0  0  0  0  0  0  0  0  0  0  0
   40.3415  -46.8405    7.8986 C   0  0  0  0  0  0  0  0  0  0  0  0
   42.0006  -42.1440    1.2689 N   0  0  0  0  0  0  0  0  0  0  0  0
   42.5732  -40.9286    0.8530 C   0  0  0  0  0  0  0  0  0  0  0  0
   42.1059  -39.6934    1.1849 C   0  0  0  0  0  0  0  0  0  0  0  0
   42.7621  -38.5310    0.7275 C   0  0  0  0  0  0  0  0  0  0  0  0
   43.8824  -38.6408   -0.0603 C   0  0  0  0  0  0  0  0  0  0  0  0
   44.3790  -39.8874   -0.4134 C   0  0  0  0  0  0  0  0  0  0  0  0
   45.5284  -39.9426   -1.2215 N   0  0  0  0  0  0  0  0  0  0  0  0
   46.3633  -38.8351   -1.6431 C   0  0  0  0  0  0  0  0  0  0  0  0
   46.8760  -39.3135   -2.9847 C   0  0  0  0  0  0  0  0  0  0  0  0
   47.1631  -40.7062   -2.6971 N   0  0  0  0  0  0  0  0  0  0  0  0
   46.1150  -41.1034   -1.7974 C   0  0  0  0  0  0  0  0  0  0  0  0
   45.7794  -42.2956   -1.5649 O   0  0  0  0  0  0  0  0  0  0  0  0
   43.7294  -40.9741    0.0399 C   0  0  0  0  0  0  0  0  0  0  0  0
  1  2  2  0  0  0  0
  2  3  1  0  0  0  0
  2 15  1  0  0  0  0
  3  4  1  0  0  0  0
  4  5  1  0  0  0  0
  5  6  1  0  0  0  0
  6  7  1  0  0  0  0
  7  8  2  0  0  0  0
  7  9  1  0  0  0  0
  9 10  2  0  0  0  0
 10 11  1  0  0  0  0
 11 12  2  0  0  0  0
 12 13  1  0  0  0  0
 13 14  2  0  0  0  0
 14  9  1  0  0  0  0
 15 16  1  0  0  0  0
 16 17  2  0  0  0  0
 17 18  1  0  0  0  0
 18 19  2  0  0  0  0
 19 20  1  0  0  0  0
 20 21  1  0  0  0  0
 20 27  2  0  0  0  0
 21 22  1  0  0  0  0
 22 23  1  0  0  0  0
 23 24  1  0  0  0  0
 24 25  1  0  0  0  0
 25 26  2  0  0  0  0
 25 21  1  0  0  0  0
 27 16  1  0  0  0  0
M  END
>  <CHROM.1>
94.78012851,88.12439852,-159.25432504,8.42615852,-143.13450343,6.59241949
42.92940334,-43.36463474,2.30175883,-0.95454094,-0.75195493,2.76380175

>  <Name>
design_5

>  <RI>
0

>  <Rbt.Current_Directory>
/home/ziqiaoxu/icml18-jtnn/VAEdesign

>  <Rbt.Executable>
rbdock ($Id: //depot/dev/client3/rdock/2013.1/src/exe/rbdock.cxx#4 $)

>  <Rbt.Library>
libRbt.so (2013.1, Build901 2013/11/27)

>  <Rbt.Parameter_File>
/export/apps/rDock/src/rDock_2013.1_src//data/scripts/dock.prm

>  <Rbt.Receptor>
/home/ziqiaoxu/icml18-jtnn/VAEdesign/targets/RdRp-SARS-CoV-2/pocket_docking.prm

>  <SCORE>
-21.6951

>  <SCORE.INTER>
-24.1333

>  <SCORE.INTER.CONST>
1

>  <SCORE.INTER.POLAR>
-2.81464

>  <SCORE.INTER.REPUL>
0

>  <SCORE.INTER.ROT>
6

>  <SCORE.INTER.VDW>
-25.9635

>  <SCORE.INTER.norm>
-0.893825

>  <SCORE.INTRA>
1.95383

>  <SCORE.INTRA.DIHEDRAL>
2.95853

>  <SCORE.INTRA.DIHEDRAL.0>
6.89728

>  <SCORE.INTRA.POLAR>
0

>  <SCORE.INTRA.POLAR.0>
0

>  <SCORE.INTRA.REPUL>
0

>  <SCORE.INTRA.REPUL.0>
0

>  <SCORE.INTRA.VDW>
0.474565

>  <SCORE.INTRA.VDW.0>
-1.03791

>  <SCORE.INTRA.norm>
0.0723641

>  <SCORE.RESTR>
0.48434

>  <SCORE.RESTR.CAVITY>
0.48434

>  <SCORE.RESTR.norm>
0.0179385

>  <SCORE.SYSTEM>
0

>  <SCORE.SYSTEM.CONST>
0

>  <SCORE.SYSTEM.DIHEDRAL>
0

>  <SCORE.SYSTEM.norm>
0

>  <SCORE.heavy>
27

>  <SCORE.norm>
-0.803522

$$$$
design_17
 OpenBabel05252019093D

 23 25  0  0  0  0  0  0  0  0999 V2000
   44.2071  -45.9393    0.1642 C   0  0  0  0  0  0  0  0  0  0  0  0
   44.6186  -45.7585    1.4978 O   0  0  0  0  0  0  0  0  0  0  0  0
   45.7508  -46.3556    2.0141 C   0  0  0  0  0  0  0  0  0  0  0  0
   46.5505  -47.1515    1.2936 N   0  0  0  0  0  0  0  0  0  0  0  0
   47.6484  -47.7231    1.8159 C   0  0  0  0  0  0  0  0  0  0  0  0
   48.0001  -47.5115    3.1286 C   0  0  0  0  0  0  0  0  0  0  0  0
   47.1956  -46.6968    3.8954 C   0  0  0  0  0  0  0  0  0  0  0  0
   46.0733  -46.1131    3.3572 C   0  0  0  0  0  0  0  0  0  0  0  0
   45.1697  -45.2625    4.1285 C   0  0  0  0  0  0  0  0  0  0  0  0
   45.2105  -45.4091    5.5529 N   0  0  0  0  0  0  0  0  0  0  0  0
   44.7527  -44.4172    6.4346 C   0  0  0  0  0  0  0  0  0  0  0  0
   44.2763  -43.3524    5.9822 O   0  0  0  0  0  0  0  0  0  0  0  0
   44.8267  -44.6156    7.8843 C   0  0  0  0  0  0  0  0  0  0  0  0
   43.4449  -44.8359    8.4714 C   0  0  0  0  0  0  0  0  0  0  0  0
   43.0542  -44.1048    9.5668 C   0  0  0  0  0  0  0  0  0  0  0  0
   41.4730  -44.7098    9.8287 S   0  0  0  0  0  0  0  0  0  0  0  0
   41.4161  -45.8320    8.5500 C   0  0  0  0  0  0  0  0  0  0  0  0
   40.3317  -46.7328    8.1616 C   0  0  0  0  0  0  0  0  0  0  0  0
   39.1363  -46.9157    8.7936 C   0  0  0  0  0  0  0  0  0  0  0  0
   38.2829  -47.7968    8.2622 C   0  0  0  0  0  0  0  0  0  0  0  0
   38.6781  -48.4483    7.1209 C   0  0  0  0  0  0  0  0  0  0  0  0
   40.2331  -47.7980    6.8388 S   0  0  0  0  0  0  0  0  0  0  0  0
   42.6029  -45.6902    7.9878 N   0  0  0  0  0  0  0  0  0  0  0  0
  1  2  1  0  0  0  0
  2  3  1  0  0  0  0
  3  4  2  0  0  0  0
  4  5  1  0  0  0  0
  5  6  2  0  0  0  0
  6  7  1  0  0  0  0
  7  8  2  0  0  0  0
  8  9  1  0  0  0  0
  8  3  1  0  0  0  0
  9 10  1  0  0  0  0
 10 11  1  0  0  0  0
 11 12  2  0  0  0  0
 11 13  1  0  0  0  0
 13 14  1  0  0  0  0
 14 15  2  0  0  0  0
 15 16  1  0  0  0  0
 16 17  1  0  0  0  0
 17 18  1  0  0  0  0
 17 23  2  0  0  0  0
 18 19  2  0  0  0  0
 19 20  1  0  0  0  0
 20 21  2  0  0  0  0
 21 22  1  0  0  0  0
 22 18  1  0  0  0  0
 23 14  1  0  0  0  0
M  END
>  <CHROM.1>
0.11126323,157.80560501,159.08739312,-108.55169696,-130.40451144,-3.57933273
43.34406519,-46.04719931,5.89817777,0.72418612,-0.45767162,-2.06169326

>  <Name>
design_17

>  <RI>
0

>  <Rbt.Current_Directory>
/home/ziqiaoxu/icml18-jtnn/VAEdesign

>  <Rbt.Executable>
rbdock ($Id: //depot/dev/client3/rdock/2013.1/src/exe/rbdock.cxx#4 $)

>  <Rbt.Library>
libRbt.so (2013.1, Build901 2013/11/27)

>  <Rbt.Parameter_File>
/export/apps/rDock/src/rDock_2013.1_src//data/scripts/dock.prm

>  <Rbt.Receptor>
/home/ziqiaoxu/icml18-jtnn/VAEdesign/targets/RdRp-SARS-CoV-2/pocket_docking.prm

>  <SCORE>
-18.3404

>  <SCORE.INTER>
-17.6033

>  <SCORE.INTER.CONST>
1

>  <SCORE.INTER.POLAR>
-0.894427

>  <SCORE.INTER.REPUL>
0

>  <SCORE.INTER.ROT>
6

>  <SCORE.INTER.VDW>
-25.9623

>  <SCORE.INTER.norm>
-0.765362

>  <SCORE.INTRA>
-0.737113

>  <SCORE.INTRA.DIHEDRAL>
-1.12727

>  <SCORE.INTRA.DIHEDRAL.0>
4.61215

>  <SCORE.INTRA.POLAR>
0

>  <SCORE.INTRA.POLAR.0>
0

>  <SCORE.INTRA.REPUL>
0

>  <SCORE.INTRA.REPUL.0>
0

>  <SCORE.INTRA.VDW>
-0.17348

>  <SCORE.INTRA.VDW.0>
-1.64431

>  <SCORE.INTRA.norm>
-0.0320484

>  <SCORE.RESTR>
0

>  <SCORE.RESTR.CAVITY>
0

>  <SCORE.RESTR.norm>
0

>  <SCORE.SYSTEM>
0

>  <SCORE.SYSTEM.CONST>
0

>  <SCORE.SYSTEM.DIHEDRAL>
0

>  <SCORE.SYSTEM.norm>
0

>  <SCORE.heavy>
23

>  <SCORE.norm>
-0.79741

$$$$
design_5
 OpenBabel05252019093D

 25 27  0  0  0  0  0  0  0  0999 V2000
   40.5770  -39.7270    4.9275 C   0  0  0  0  0  0  0  0  0  0  0  0
   40.5031  -39.7238    6.3722 C   0  0  0  0  0  0  0  0  0  0  0  0
   41.0470  -38.6428    7.0464 C   0  0  0  0  0  0  0  0  0  0  0  0
   41.0163  -38.5729    8.4030 C   0  0  0  0  0  0  0  0  0  0  0  0
   40.4436  -39.5783    9.1111 C   0  0  0  0  0  0  0  0  0  0  0  0
   39.9036  -40.6525    8.4308 C   0  0  0  0  0  0  0  0  0  0  0  0
   39.9102  -40.7696    7.0498 C   0  0  0  0  0  0  0  0  0  0  0  0
   39.3257  -41.9206    6.4053 C   0  0  1  0  0  0  0  0  0  0  0  0
   39.8773  -43.2530    6.8440 C   0  0  0  0  0  0  0  0  0  0  0  0
   38.8931  -44.1881    6.1964 C   0  0  2  0  0  0  0  0  0  0  0  0
   39.3858  -44.3942    4.7581 C   0  0  0  0  0  0  0  0  0  0  0  0
   37.6428  -43.4879    6.1189 N   0  0  0  0  0  0  0  0  0  0  0  0
   36.3909  -44.0871    5.8355 C   0  0  0  0  0  0  0  0  0  0  0  0
   35.3861  -43.2874    5.8231 O   0  0  0  0  0  0  0  0  0  0  0  0
   36.0944  -45.4787    5.5582 C   0  0  0  0  0  0  0  0  0  0  0  0
   36.2540  -46.3957    6.5831 O   0  0  0  0  0  0  0  0  0  0  0  0
   37.5412  -46.7458    6.9586 C   0  0  0  0  0  0  0  0  0  0  0  0
   38.3772  -47.4728    6.1170 C   0  0  0  0  0  0  0  0  0  0  0  0
   39.6590  -47.8195    6.4950 C   0  0  0  0  0  0  0  0  0  0  0  0
   40.1523  -47.4473    7.7389 C   0  0  0  0  0  0  0  0  0  0  0  0
   39.3389  -46.7241    8.5922 C   0  0  0  0  0  0  0  0  0  0  0  0
   39.8532  -46.3379    9.8852 C   0  0  0  0  0  0  0  0  0  0  0  0
   40.2697  -46.0393   10.9335 N   0  0  0  0  0  0  0  0  0  0  0  0
   38.0761  -46.3957    8.1912 C   0  0  0  0  0  0  0  0  0  0  0  0
   37.8548  -42.0551    6.3670 C   0  0  0  0  0  0  0  0  0  0  0  0
  1  2  1  0  0  0  0
  2  3  2  0  0  0  0
  3  4  1  0  0  0  0
  4  5  2  0  0  0  0
  5  6  1  0  0  0  0
  6  7  2  0  0  0  0
  7  2  1  0  0  0  0
  8  7  1  1  0  0  0
  8  9  1  0  0  0  0
  9 10  1  0  0  0  0
 10 11  1  6  0  0  0
 10 12  1  0  0  0  0
 12 13  1  0  0  0  0
 12 25  1  0  0  0  0
 13 14  2  0  0  0  0
 13 15  1  0  0  0  0
 15 16  1  0  0  0  0
 16 17  1  0  0  0  0
 17 18  2  0  0  0  0
 18 19  1  0  0  0  0
 19 20  2  0  0  0  0
 20 21  1  0  0  0  0
 21 22  1  0  0  0  0
 21 24  2  0  0  0  0
 22 23  3  0  0  0  0
 24 17  1  0  0  0  0
 25  8  1  0  0  0  0
M  END
>  <CHROM.1>
123.78007656,67.46449654,-73.32630865,-67.82628791,38.89896179,-43.64861438
7.02178130,1.14066614,-0.77347479,-0.31749272

>  <Name>
design_5

>  <RI>
0

>  <Rbt.Current_Directory>
/home/ziqiaoxu/icml18-jtnn/VAEdesign

>  <Rbt.Executable>
rbdock ($Id: //depot/dev/client3/rdock/2013.1/src/exe/rbdock.cxx#4 $)

>  <Rbt.Library>
libRbt.so (2013.1, Build901 2013/11/27)

>  <Rbt.Parameter_File>
/export/apps/rDock/src/rDock_2013.1_src//data/scripts/dock.prm

>  <Rbt.Receptor>
/home/ziqiaoxu/icml18-jtnn/VAEdesign/targets/RdRp-SARS-CoV-2/pocket_docking.prm

>  <SCORE>
-20.4807

>  <SCORE.INTER>
-16.5612

>  <SCORE.INTER.CONST>
1

>  <SCORE.INTER.POLAR>
0

>  <SCORE.INTER.REPUL>
0

>  <SCORE.INTER.ROT>
4

>  <SCORE.INTER.VDW>
-25.9612

>  <SCORE.INTER.norm>
-0.662447

>  <SCORE.INTRA>
-3.91951

>  <SCORE.INTRA.DIHEDRAL>
4.95805

>  <SCORE.INTRA.DIHEDRAL.0>
2.05603

>  <SCORE.INTRA.POLAR>
0

>  <SCORE.INTRA.POLAR.0>
0

>  <SCORE.INTRA.REPUL>
0

>  <SCORE.INTRA.REPUL.0>
0

>  <SCORE.INTRA.VDW>
-6.39853

>  <SCORE.INTRA.VDW.0>
3.56226

>  <SCORE.INTRA.norm>
-0.15678

>  <SCORE.RESTR>
0

>  <SCORE.RESTR.CAVITY>
0

>  <SCORE.RESTR.norm>
0

>  <SCORE.SYSTEM>
0

>  <SCORE.SYSTEM.CONST>
0

>  <SCORE.SYSTEM.DIHEDRAL>
0

>  <SCORE.SYSTEM.norm>
0

>  <SCORE.heavy>
25

>  <SCORE.norm>
-0.819228

$$$$
design_10
 OpenBabel05252019093D

 25 27  0  0  0  0  0  0  0  0999 V2000
   40.6309  -38.6415    2.2976 N   0  0  0  0  0  0  0  0  0  0  0  0
   41.2092  -38.1219    3.4812 C   0  0  0  0  0  0  0  0  0  0  0  0
   42.4414  -38.1925    3.6901 O   0  0  0  0  0  0  0  0  0  0  0  0
   40.3564  -37.4774    4.5064 C   0  0  0  0  0  0  0  0  0  0  0  0
   40.1920  -38.3811    5.6740 C   0  0  0  0  0  0  0  0  0  0  0  0
   39.7804  -39.6872    5.5529 C   0  0  0  0  0  0  0  0  0  0  0  0
   39.6218  -40.5440    6.6314 C   0  0  0  0  0  0  0  0  0  0  0  0
   39.8777  -40.1101    7.8992 C   0  0  0  0  0  0  0  0  0  0  0  0
   39.7794  -40.9112    9.0649 N   0  0  0  0  0  0  0  0  0  0  0  0
   40.0292  -42.3348    8.9803 C   0  0  0  0  0  0  0  0  0  0  0  0
   40.3344  -42.8044    7.8920 O   0  0  0  0  0  0  0  0  0  0  0  0
   39.8784  -43.0458   10.2509 C   0  0  0  0  0  0  0  0  0  0  0  0
   40.8017  -44.1719   10.4804 C   0  0  0  0  0  0  0  0  0  0  0  0
   40.6297  -45.2589    9.5686 N   0  0  0  0  0  0  0  0  0  0  0  0
   39.6318  -46.3087    9.8076 C   0  0  0  0  0  0  0  0  0  0  0  0
   39.5376  -47.0624    8.5443 C   0  0  0  0  0  0  0  0  0  0  0  0
   38.6955  -48.0666    8.1537 C   0  0  0  0  0  0  0  0  0  0  0  0
   38.8482  -48.6820    6.9127 C   0  0  0  0  0  0  0  0  0  0  0  0
   39.8514  -48.2819    6.0681 C   0  0  0  0  0  0  0  0  0  0  0  0
   40.6985  -47.2591    6.4785 C   0  0  0  0  0  0  0  0  0  0  0  0
   40.5365  -46.6649    7.6955 C   0  0  0  0  0  0  0  0  0  0  0  0
   41.2184  -45.5521    8.3350 C   0  0  0  0  0  0  0  0  0  0  0  0
   42.2030  -44.9865    7.7913 O   0  0  0  0  0  0  0  0  0  0  0  0
   40.3019  -38.7719    8.0569 C   0  0  0  0  0  0  0  0  0  0  0  0
   40.4434  -37.9665    6.9701 C   0  0  0  0  0  0  0  0  0  0  0  0
  1  2  1  0  0  0  0
  2  3  2  0  0  0  0
  2  4  1  0  0  0  0
  4  5  1  0  0  0  0
  5  6  2  0  0  0  0
  6  7  1  0  0  0  0
  7  8  2  0  0  0  0
  8  9  1  0  0  0  0
  8 24  1  0  0  0  0
  9 10  1  0  0  0  0
 10 11  2  0  0  0  0
 10 12  1  0  0  0  0
 12 13  1  0  0  0  0
 13 14  1  0  0  0  0
 14 15  1  0  0  0  0
 15 16  1  0  0  0  0
 16 17  2  0  0  0  0
 17 18  1  0  0  0  0
 18 19  2  0  0  0  0
 19 20  1  0  0  0  0
 20 21  2  0  0  0  0
 21 22  1  0  0  0  0
 21 16  1  0  0  0  0
 22 23  2  0  0  0  0
 22 14  1  0  0  0  0
 24 25  2  0  0  0  0
 25  5  1  0  0  0  0
M  END
>  <CHROM.1>
105.42348139,-51.83091876,29.93614849,-144.85588400,-64.61403709,-85.13214453
40.33290707,-42.71328076,7.20309987,-0.75129462,-1.46474300,-2.69381746

>  <Name>
design_10

>  <RI>
0

>  <Rbt.Current_Directory>
/home/ziqiaoxu/icml18-jtnn/VAEdesign

>  <Rbt.Executable>
rbdock ($Id: //depot/dev/client3/rdock/2013.1/src/exe/rbdock.cxx#4 $)

>  <Rbt.Library>
libRbt.so (2013.1, Build901 2013/11/27)

>  <Rbt.Parameter_File>
/export/apps/rDock/src/rDock_2013.1_src//data/scripts/dock.prm

>  <Rbt.Receptor>
/home/ziqiaoxu/icml18-jtnn/VAEdesign/targets/RdRp-SARS-CoV-2/pocket_docking.prm

>  <SCORE>
-23.3992

>  <SCORE.INTER>
-22.992

>  <SCORE.INTER.CONST>
1

>  <SCORE.INTER.POLAR>
-2.48015

>  <SCORE.INTER.REPUL>
0

>  <SCORE.INTER.ROT>
6

>  <SCORE.INTER.VDW>
-25.9595

>  <SCORE.INTER.norm>
-0.919678

>  <SCORE.INTRA>
-0.407297

>  <SCORE.INTRA.DIHEDRAL>
0.376159

>  <SCORE.INTRA.DIHEDRAL.0>
9.87085

>  <SCORE.INTRA.POLAR>
0

>  <SCORE.INTRA.POLAR.0>
0

>  <SCORE.INTRA.REPUL>
0

>  <SCORE.INTRA.REPUL.0>
0

>  <SCORE.INTRA.VDW>
-0.595376

>  <SCORE.INTRA.VDW.0>
-0.879638

>  <SCORE.INTRA.norm>
-0.0162919

>  <SCORE.RESTR>
0

>  <SCORE.RESTR.CAVITY>
0

>  <SCORE.RESTR.norm>
0

>  <SCORE.SYSTEM>
0

>  <SCORE.SYSTEM.CONST>
0

>  <SCORE.SYSTEM.DIHEDRAL>
0

>  <SCORE.SYSTEM.norm>
0

>  <SCORE.heavy>
25

>  <SCORE.norm>
-0.93597

$$$$
design_15
 OpenBabel05252019093D

 24 26  0  0  0  0  0  0  0  0999 V2000
   38.4173  -49.0945    6.2479 C   0  0  0  0  0  0  0  0  0  0  0  0
   39.8200  -48.6055    6.3538 C   0  0  0  0  0  0  0  0  0  0  0  0
   40.0595  -47.7724    7.5186 N   0  0  0  0  0  0  0  0  0  0  0  0
   41.0629  -46.7379    7.5122 C   0  0  0  0  0  0  0  0  0  0  0  0
   41.6746  -46.6557    6.4228 O   0  0  0  0  0  0  0  0  0  0  0  0
   41.2906  -45.9145    8.6788 C   0  0  0  0  0  0  0  0  0  0  0  0
   40.3203  -45.9326    9.6851 C   0  0  0  0  0  0  0  0  0  0  0  0
   40.4210  -45.1182   10.7831 C   0  0  0  0  0  0  0  0  0  0  0  0
   41.4872  -44.2922   10.8709 C   0  0  0  0  0  0  0  0  0  0  0  0
   42.4628  -44.2545    9.8917 C   0  0  0  0  0  0  0  0  0  0  0  0
   42.3967  -45.0645    8.7654 C   0  0  0  0  0  0  0  0  0  0  0  0
   43.4621  -45.0763    7.8286 N   0  0  0  0  0  0  0  0  0  0  0  0
   44.6728  -44.3880    7.8903 C   0  0  0  0  0  0  0  0  0  0  0  0
   45.0073  -43.6335    8.7984 O   0  0  0  0  0  0  0  0  0  0  0  0
   45.6383  -44.5723    6.7822 C   0  0  0  0  0  0  0  0  0  0  0  0
   46.8939  -44.0362    6.6325 C   0  0  0  0  0  0  0  0  0  0  0  0
   47.5528  -44.3512    5.5614 N   0  0  0  0  0  0  0  0  0  0  0  0
   47.0101  -45.1598    4.6660 C   0  0  0  0  0  0  0  0  0  0  0  0
   47.6152  -45.6389    3.3665 C   0  0  1  0  0  0  0  0  0  0  0  0
   48.0846  -47.0522    3.5671 C   0  0  0  0  0  0  0  0  0  0  0  0
   47.5080  -47.7345    2.3184 C   0  0  0  0  0  0  0  0  0  0  0  0
   46.2204  -46.9125    2.1673 C   0  0  0  0  0  0  0  0  0  0  0  0
   46.6627  -45.6315    2.3834 O   0  0  0  0  0  0  0  0  0  0  0  0
   45.4889  -45.5024    5.3579 S   0  0  0  0  0  0  0  0  0  0  0  0
  1  2  1  0  0  0  0
  2  3  1  0  0  0  0
  3  4  1  0  0  0  0
  4  5  2  0  0  0  0
  4  6  1  0  0  0  0
  6  7  2  0  0  0  0
  7  8  1  0  0  0  0
  8  9  2  0  0  0  0
  9 10  1  0  0  0  0
 10 11  2  0  0  0  0
 11 12  1  0  0  0  0
 11  6  1  0  0  0  0
 12 13  1  0  0  0  0
 13 14  2  0  0  0  0
 13 15  1  0  0  0  0
 15 16  2  0  0  0  0
 16 17  1  0  0  0  0
 17 18  2  0  0  0  0
 18 24  1  0  0  0  0
 19 18  1  1  0  0  0
 19 20  1  0  0  0  0
 20 21  1  0  0  0  0
 21 22  1  0  0  0  0
 22 23  1  0  0  0  0
 23 19  1  0  0  0  0
 24 15  1  0  0  0  0
M  END
>  <CHROM.1>
-150.77982749,-14.68612357,-172.31134875,-178.25325093,102.87913093,43.88557089
-45.82240980,6.53344576,2.64535643,0.45335273,0.96037694

>  <Name>
design_15

>  <RI>
0

>  <Rbt.Current_Directory>
/home/ziqiaoxu/icml18-jtnn/VAEdesign

>  <Rbt.Executable>
rbdock ($Id: //depot/dev/client3/rdock/2013.1/src/exe/rbdock.cxx#4 $)

>  <Rbt.Library>
libRbt.so (2013.1, Build901 2013/11/27)

>  <Rbt.Parameter_File>
/export/apps/rDock/src/rDock_2013.1_src//data/scripts/dock.prm

>  <Rbt.Receptor>
/home/ziqiaoxu/icml18-jtnn/VAEdesign/targets/RdRp-SARS-CoV-2/pocket_docking.prm

>  <SCORE>
-17.0824

>  <SCORE.INTER>
-15.5588

>  <SCORE.INTER.CONST>
1

>  <SCORE.INTER.POLAR>
0

>  <SCORE.INTER.REPUL>
0

>  <SCORE.INTER.ROT>
5

>  <SCORE.INTER.VDW>
-25.9588

>  <SCORE.INTER.norm>
-0.648284

>  <SCORE.INTRA>
-1.52362

>  <SCORE.INTRA.DIHEDRAL>
-0.94867

>  <SCORE.INTRA.DIHEDRAL.0>
3.90464

>  <SCORE.INTRA.POLAR>
0

>  <SCORE.INTRA.POLAR.0>
0

>  <SCORE.INTRA.REPUL>
0

>  <SCORE.INTRA.REPUL.0>
0

>  <SCORE.INTRA.VDW>
-1.04929

>  <SCORE.INTRA.VDW.0>
-1.02905

>  <SCORE.INTRA.norm>
-0.0634843

>  <SCORE.RESTR>
0

>  <SCORE.RESTR.CAVITY>
0

>  <SCORE.RESTR.norm>
0

>  <SCORE.SYSTEM>
0

>  <SCORE.SYSTEM.CONST>
0

>  <SCORE.SYSTEM.DIHEDRAL>
0

>  <SCORE.SYSTEM.norm>
0

>  <SCORE.heavy>
24

>  <SCORE.norm>
-0.711768

$$$$
design_15
 OpenBabel05252019093D

 24 27  0  0  0  0  0  0  0  0999 V2000
   41.2840  -44.6506   10.5404 C   0  0  0  0  0  0  0  0  0  0  0  0
   40.7332  -45.6357    9.5827 C   0  0  0  0  0  0  0  0  0  0  0  0
   39.5788  -46.3123    9.7258 N   0  0  0  0  0  0  0  0  0  0  0  0
   39.4109  -47.1187    8.6495 C   0  0  0  0  0  0  0  0  0  0  0  0
   38.4283  -48.0133    8.2777 C   0  0  0  0  0  0  0  0  0  0  0  0
   38.5236  -48.7138    7.0938 C   0  0  0  0  0  0  0  0  0  0  0  0
   39.6111  -48.5118    6.2845 C   0  0  0  0  0  0  0  0  0  0  0  0
   40.6185  -47.6165    6.6319 C   0  0  0  0  0  0  0  0  0  0  0  0
   40.5060  -46.9256    7.8184 C   0  0  0  0  0  0  0  0  0  0  0  0
   41.3510  -45.9895    8.3968 C   0  0  0  0  0  0  0  0  0  0  0  0
   42.6183  -45.4877    7.8662 C   0  0  0  0  0  0  0  0  0  0  0  0
   43.2187  -45.8332    6.7049 N   0  0  0  0  0  0  0  0  0  0  0  0
   44.3315  -45.1749    6.5785 O   0  0  0  0  0  0  0  0  0  0  0  0
   44.5244  -44.3830    7.6140 C   0  0  0  0  0  0  0  0  0  0  0  0
   45.6641  -43.4674    7.8610 C   0  0  0  0  0  0  0  0  0  0  0  0
   45.7758  -43.2315    9.3146 C   0  0  0  0  0  0  0  0  0  0  0  0
   45.6150  -42.0692    9.7524 O   0  0  0  0  0  0  0  0  0  0  0  0
   46.0617  -44.3344   10.1630 N   0  0  0  0  0  0  0  0  0  0  0  0
   46.1677  -44.0842   11.5875 C   0  0  0  0  0  0  0  0  0  0  0  0
   44.7666  -43.8489   12.1454 C   0  0  0  0  0  0  0  0  0  0  0  0
   44.7239  -44.5278   13.4763 C   0  0  0  0  0  0  0  0  0  0  0  0
   46.0948  -45.0897   13.7165 C   0  0  0  0  0  0  0  0  0  0  0  0
   46.6027  -45.3426   12.3098 C   0  0  0  0  0  0  0  0  0  0  0  0
   43.4454  -44.5823    8.4212 N   0  0  0  0  0  0  0  0  0  0  0  0
  1  2  1  0  0  0  0
  2  3  1  0  0  0  0
  3  4  1  0  0  0  0
  4  5  2  0  0  0  0
  5  6  1  0  0  0  0
  6  7  2  0  0  0  0
  7  8  1  0  0  0  0
  8  9  2  0  0  0  0
  9 10  1  0  0  0  0
  9  4  1  0  0  0  0
 10 11  1  0  0  0  0
 10  2  2  0  0  0  0
 11 12  2  0  0  0  0
 12 13  1  0  0  0  0
 13 14  1  0  0  0  0
 14 15  1  0  0  0  0
 14 24  2  0  0  0  0
 15 16  1  0  0  0  0
 16 17  2  0  0  0  0
 16 18  1  0  0  0  0
 18 19  1  0  0  0  0
 19 20  1  0  0  0  0
 20 21  1  0  0  0  0
 21 22  1  0  0  0  0
 22 23  1  0  0  0  0
 23 19  1  0  0  0  0
 24 11  1  0  0  0  0
M  END
>  <CHROM.1>
-179.84149436,-156.13830795,-117.10038134,73.70767563,42.98840111,-45.39969621
9.23619616,2.66598274,-0.52041828,-1.56171071

>  <Name>
design_15

>  <RI>
0

>  <Rbt.Current_Directory>
/home/ziqiaoxu/icml18-jtnn/VAEdesign

>  <Rbt.Executable>
rbdock ($Id: //depot/dev/client3/rdock/2013.1/src/exe/rbdock.cxx#4 $)

>  <Rbt.Library>
libRbt.so (2013.1, Build901 2013/11/27)

>  <Rbt.Parameter_File>
/export/apps/rDock/src/rDock_2013.1_src//data/scripts/dock.prm

>  <Rbt.Receptor>
/home/ziqiaoxu/icml18-jtnn/VAEdesign/targets/RdRp-SARS-CoV-2/pocket_docking.prm

>  <SCORE>
-29.9374

>  <SCORE.INTER>
-23.7321

>  <SCORE.INTER.CONST>
1

>  <SCORE.INTER.POLAR>
-2.11011

>  <SCORE.INTER.REPUL>
0

>  <SCORE.INTER.ROT>
4

>  <SCORE.INTER.VDW>
-25.9578

>  <SCORE.INTER.norm>
-0.988839

>  <SCORE.INTRA>
-6.20528

>  <SCORE.INTRA.DIHEDRAL>
-11.3919

>  <SCORE.INTRA.DIHEDRAL.0>
15.288

>  <SCORE.INTRA.POLAR>
0

>  <SCORE.INTRA.POLAR.0>
0

>  <SCORE.INTRA.REPUL>
0

>  <SCORE.INTRA.REPUL.0>
0

>  <SCORE.INTRA.VDW>
-0.509312

>  <SCORE.INTRA.VDW.0>
-1.57883

>  <SCORE.INTRA.norm>
-0.258553

>  <SCORE.RESTR>
0

>  <SCORE.RESTR.CAVITY>
0

>  <SCORE.RESTR.norm>
0

>  <SCORE.SYSTEM>
0

>  <SCORE.SYSTEM.CONST>
0

>  <SCORE.SYSTEM.DIHEDRAL>
0

>  <SCORE.SYSTEM.norm>
0

>  <SCORE.heavy>
24

>  <SCORE.norm>
-1.24739

$$$$
design_3
 OpenBabel05252019093D

 25 27  0  0  0  0  0  0  0  0999 V2000
   41.5071  -42.0140    0.9386 N   0  0  0  0  0  0  0  0  0  0  0  0
   42.4797  -42.9747    1.4255 C   0  0  0  0  0  0  0  0  0  0  0  0
   42.5892  -43.0848    2.6750 O   0  0  0  0  0  0  0  0  0  0  0  0
   43.2506  -43.7341    0.5389 N   0  0  0  0  0  0  0  0  0  0  0  0
   44.2137  -44.6964    0.8255 C   0  0  0  0  0  0  0  0  0  0  0  0
   44.7099  -45.5767   -0.1048 C   0  0  0  0  0  0  0  0  0  0  0  0
   45.6611  -46.5120    0.2989 C   0  0  0  0  0  0  0  0  0  0  0  0
   46.0908  -46.5479    1.6018 C   0  0  0  0  0  0  0  0  0  0  0  0
   45.6107  -45.6761    2.5580 C   0  0  0  0  0  0  0  0  0  0  0  0
   46.1096  -45.7416    3.9722 C   0  0  0  0  0  0  0  0  0  0  0  0
   44.9535  -45.7679    4.8836 N   0  0  0  0  0  0  0  0  0  0  0  0
   45.0932  -45.2270    6.1744 C   0  0  0  0  0  0  0  0  0  0  0  0
   46.1952  -44.7217    6.5531 O   0  0  0  0  0  0  0  0  0  0  0  0
   44.0053  -45.2228    7.1090 C   0  0  0  0  0  0  0  0  0  0  0  0
   44.0237  -44.4087    8.2361 C   0  0  0  0  0  0  0  0  0  0  0  0
   42.9952  -44.3855    9.1585 C   0  0  0  0  0  0  0  0  0  0  0  0
   41.9073  -45.2054    8.9486 C   0  0  0  0  0  0  0  0  0  0  0  0
   41.8489  -46.0294    7.8422 C   0  0  0  0  0  0  0  0  0  0  0  0
   40.7260  -46.8720    7.6328 N   0  0  0  0  0  0  0  0  0  0  0  0
   39.7237  -47.0640    8.5149 C   0  0  0  0  0  0  0  0  0  0  0  0
   38.8000  -47.9551    7.9651 C   0  0  0  0  0  0  0  0  0  0  0  0
   39.2796  -48.2952    6.7185 C   0  0  0  0  0  0  0  0  0  0  0  0
   40.4629  -47.6181    6.5361 C   0  0  0  0  0  0  0  0  0  0  0  0
   42.9086  -46.0171    6.9430 C   0  0  0  0  0  0  0  0  0  0  0  0
   44.6808  -44.7645    2.1568 C   0  0  0  0  0  0  0  0  0  0  0  0
  1  2  1  0  0  0  0
  2  3  2  0  0  0  0
  2  4  1  0  0  0  0
  4  5  1  0  0  0  0
  5  6  2  0  0  0  0
  6  7  1  0  0  0  0
  7  8  2  0  0  0  0
  8  9  1  0  0  0  0
  9 10  1  0  0  0  0
  9 25  2  0  0  0  0
 10 11  1  0  0  0  0
 11 12  1  0  0  0  0
 12 13  2  0  0  0  0
 12 14  1  0  0  0  0
 14 15  2  0  0  0  0
 15 16  1  0  0  0  0
 16 17  2  0  0  0  0
 17 18  1  0  0  0  0
 18 19  1  0  0  0  0
 18 24  2  0  0  0  0
 19 20  1  0  0  0  0
 20 21  2  0  0  0  0
 21 22  1  0  0  0  0
 22 23  2  0  0  0  0
 23 19  1  0  0  0  0
 24 14  1  0  0  0  0
 25  5  1  0  0  0  0
M  END
>  <CHROM.1>
165.83375499,-130.24794550,-151.01381683,-163.59594704,-7.63309459,43.19395756
-45.39024671,4.75046808,1.14621490,-0.10795681,-1.35290408

>  <Name>
design_3

>  <RI>
0

>  <Rbt.Current_Directory>
/home/ziqiaoxu/icml18-jtnn/VAEdesign

>  <Rbt.Executable>
rbdock ($Id: //depot/dev/client3/rdock/2013.1/src/exe/rbdock.cxx#4 $)

>  <Rbt.Library>
libRbt.so (2013.1, Build901 2013/11/27)

>  <Rbt.Parameter_File>
/export/apps/rDock/src/rDock_2013.1_src//data/scripts/dock.prm

>  <Rbt.Receptor>
/home/ziqiaoxu/icml18-jtnn/VAEdesign/targets/RdRp-SARS-CoV-2/pocket_docking.prm

>  <SCORE>
-22.574

>  <SCORE.INTER>
-22.7141

>  <SCORE.INTER.CONST>
1

>  <SCORE.INTER.POLAR>
-2.10481

>  <SCORE.INTER.REPUL>
0

>  <SCORE.INTER.ROT>
5

>  <SCORE.INTER.VDW>
-25.9578

>  <SCORE.INTER.norm>
-0.908565

>  <SCORE.INTRA>
0.14015

>  <SCORE.INTRA.DIHEDRAL>
-0.855435

>  <SCORE.INTRA.DIHEDRAL.0>
4.76

>  <SCORE.INTRA.POLAR>
0

>  <SCORE.INTRA.POLAR.0>
0

>  <SCORE.INTRA.REPUL>
0

>  <SCORE.INTRA.REPUL.0>
0

>  <SCORE.INTRA.VDW>
0.567867

>  <SCORE.INTRA.VDW.0>
-0.52898

>  <SCORE.INTRA.norm>
0.005606

>  <SCORE.RESTR>
0

>  <SCORE.RESTR.CAVITY>
0

>  <SCORE.RESTR.norm>
0

>  <SCORE.SYSTEM>
0

>  <SCORE.SYSTEM.CONST>
0

>  <SCORE.SYSTEM.DIHEDRAL>
0

>  <SCORE.SYSTEM.norm>
0

>  <SCORE.heavy>
25

>  <SCORE.norm>
-0.902959

$$$$
design_7
 OpenBabel05252019093D

 25 28  0  0  0  0  0  0  0  0999 V2000
   49.0954  -48.1320    0.1605 C   0  0  0  0  0  0  0  0  0  0  0  0
   48.5354  -47.6103    1.4528 C   0  0  0  0  0  0  0  0  0  0  0  0
   49.1127  -47.6760    2.6666 N   0  0  0  0  0  0  0  0  0  0  0  0
   48.3003  -47.1026    3.5516 N   0  0  0  0  0  0  0  0  0  0  0  0
   47.2035  -46.6638    2.9378 C   0  0  0  0  0  0  0  0  0  0  0  0
   46.0544  -45.9762    3.5216 C   0  0  0  0  0  0  0  0  0  0  0  0
   45.0912  -45.4688    2.6606 C   0  0  0  0  0  0  0  0  0  0  0  0
   44.0083  -44.8224    3.1934 C   0  0  0  0  0  0  0  0  0  0  0  0
   43.8613  -44.6693    4.5616 C   0  0  0  0  0  0  0  0  0  0  0  0
   44.8373  -45.1861    5.3833 C   0  0  0  0  0  0  0  0  0  0  0  0
   44.7020  -45.0412    6.8557 C   0  0  0  0  0  0  0  0  0  0  0  0
   43.4716  -45.6057    7.3651 N   0  0  0  0  0  0  0  0  0  0  0  0
   42.7257  -44.9099    8.3350 C   0  0  0  0  0  0  0  0  0  0  0  0
   43.1069  -43.8040    8.7705 O   0  0  0  0  0  0  0  0  0  0  0  0
   41.4717  -45.5251    8.8286 C   0  0  0  0  0  0  0  0  0  0  0  0
   40.8195  -45.2738   10.0178 C   0  0  0  0  0  0  0  0  0  0  0  0
   39.7220  -46.0478   10.0578 N   0  0  0  0  0  0  0  0  0  0  0  0
   39.6260  -46.8006    8.9390 C   0  0  0  0  0  0  0  0  0  0  0  0
   38.6984  -47.7417    8.5037 C   0  0  0  0  0  0  0  0  0  0  0  0
   38.8379  -48.3818    7.2899 C   0  0  0  0  0  0  0  0  0  0  0  0
   39.9341  -48.0548    6.5189 C   0  0  0  0  0  0  0  0  0  0  0  0
   40.8540  -47.1221    6.9499 C   0  0  0  0  0  0  0  0  0  0  0  0
   40.7220  -46.4738    8.1679 C   0  0  0  0  0  0  0  0  0  0  0  0
   45.9408  -45.8421    4.8881 C   0  0  0  0  0  0  0  0  0  0  0  0
   47.3575  -46.9822    1.6396 N   0  0  0  0  0  0  0  0  0  0  0  0
  1  2  1  0  0  0  0
  2  3  2  0  0  0  0
  3  4  1  0  0  0  0
  4  5  1  0  0  0  0
  5  6  1  0  0  0  0
  5 25  2  0  0  0  0
  6  7  2  0  0  0  0
  7  8  1  0  0  0  0
  8  9  2  0  0  0  0
  9 10  1  0  0  0  0
 10 11  1  0  0  0  0
 10 24  2  0  0  0  0
 11 12  1  0  0  0  0
 12 13  1  0  0  0  0
 13 14  2  0  0  0  0
 13 15  1  0  0  0  0
 15 16  2  0  0  0  0
 16 17  1  0  0  0  0
 17 18  1  0  0  0  0
 18 19  2  0  0  0  0
 19 20  1  0  0  0  0
 20 21  2  0  0  0  0
 21 22  1  0  0  0  0
 22 23  2  0  0  0  0
 23 15  1  0  0  0  0
 23 18  1  0  0  0  0
 24  6  1  0  0  0  0
 25  2  1  0  0  0  0
M  END
>  <CHROM.1>
172.48495843,57.03941125,-137.15985998,157.81277484,43.81496384,-46.27356656
5.72620914,0.55558490,-0.47448908,-2.29612769

>  <Name>
design_7

>  <RI>
0

>  <Rbt.Current_Directory>
/home/ziqiaoxu/icml18-jtnn/VAEdesign

>  <Rbt.Executable>
rbdock ($Id: //depot/dev/client3/rdock/2013.1/src/exe/rbdock.cxx#4 $)

>  <Rbt.Library>
libRbt.so (2013.1, Build901 2013/11/27)

>  <Rbt.Parameter_File>
/export/apps/rDock/src/rDock_2013.1_src//data/scripts/dock.prm

>  <Rbt.Receptor>
/home/ziqiaoxu/icml18-jtnn/VAEdesign/targets/RdRp-SARS-CoV-2/pocket_docking.prm

>  <SCORE>
-22.5803

>  <SCORE.INTER>
-22.5377

>  <SCORE.INTER.CONST>
1

>  <SCORE.INTER.POLAR>
-1.75889

>  <SCORE.INTER.REPUL>
0

>  <SCORE.INTER.ROT>
4

>  <SCORE.INTER.VDW>
-25.9574

>  <SCORE.INTER.norm>
-0.901507

>  <SCORE.INTRA>
-0.0425763

>  <SCORE.INTRA.DIHEDRAL>
-1.88473

>  <SCORE.INTRA.DIHEDRAL.0>
5.65976

>  <SCORE.INTRA.POLAR>
0

>  <SCORE.INTRA.POLAR.0>
0

>  <SCORE.INTRA.REPUL>
0

>  <SCORE.INTRA.REPUL.0>
0

>  <SCORE.INTRA.VDW>
0.899787

>  <SCORE.INTRA.VDW.0>
-2.29611

>  <SCORE.INTRA.norm>
-0.00170305

>  <SCORE.RESTR>
0

>  <SCORE.RESTR.CAVITY>
0

>  <SCORE.RESTR.norm>
0

>  <SCORE.SYSTEM>
0

>  <SCORE.SYSTEM.CONST>
0

>  <SCORE.SYSTEM.DIHEDRAL>
0

>  <SCORE.SYSTEM.norm>
0

>  <SCORE.heavy>
25

>  <SCORE.norm>
-0.90321

$$$$
design_8
 OpenBabel05252019093D

 26 28  0  0  0  0  0  0  0  0999 V2000
   38.3044  -41.7771   11.1183 N   0  0  0  0  0  0  0  0  0  0  0  0
   39.3729  -41.7988   10.1867 C   0  0  0  0  0  0  0  0  0  0  0  0
   40.2654  -42.6691   10.3335 O   0  0  0  0  0  0  0  0  0  0  0  0
   39.4760  -40.8612    9.0766 C   0  0  0  0  0  0  0  0  0  0  0  0
   40.6249  -40.1298    8.8574 C   0  0  0  0  0  0  0  0  0  0  0  0
   40.7326  -39.2366    7.8046 C   0  0  0  0  0  0  0  0  0  0  0  0
   39.6841  -39.0360    6.9180 C   0  0  0  0  0  0  0  0  0  0  0  0
   39.8145  -38.0729    5.7905 C   0  0  0  0  0  0  0  0  0  0  0  0
   39.7657  -38.7218    4.5119 N   0  0  0  0  0  0  0  0  0  0  0  0
   40.8513  -38.6279    3.6066 C   0  0  0  0  0  0  0  0  0  0  0  0
   41.9001  -37.9610    3.9112 O   0  0  0  0  0  0  0  0  0  0  0  0
   40.8364  -39.2586    2.3320 N   0  0  0  0  0  0  0  0  0  0  0  0
   41.9533  -39.1515    1.4266 C   0  0  0  0  0  0  0  0  0  0  0  0
   42.4865  -40.4895    1.0938 C   0  0  0  0  0  0  0  0  0  0  0  0
   43.6824  -40.6365    0.4229 C   0  0  0  0  0  0  0  0  0  0  0  0
   44.1664  -41.8872    0.1187 C   0  0  0  0  0  0  0  0  0  0  0  0
   43.4944  -43.0372    0.4620 C   0  0  0  0  0  0  0  0  0  0  0  0
   44.0278  -44.3194    0.1305 N   0  0  0  0  0  0  0  0  0  0  0  0
   43.4122  -45.4882    0.3598 C   0  0  0  0  0  0  0  0  0  0  0  0
   44.2239  -46.5023   -0.0907 C   0  0  0  0  0  0  0  0  0  0  0  0
   45.3453  -45.9091   -0.5975 C   0  0  0  0  0  0  0  0  0  0  0  0
   45.1810  -44.5726   -0.4407 N   0  0  0  0  0  0  0  0  0  0  0  0
   42.3007  -42.8932    1.1315 C   0  0  0  0  0  0  0  0  0  0  0  0
   41.8039  -41.6488    1.4425 C   0  0  0  0  0  0  0  0  0  0  0  0
   38.5374  -39.7672    7.1382 C   0  0  0  0  0  0  0  0  0  0  0  0
   38.4361  -40.6594    8.1936 C   0  0  0  0  0  0  0  0  0  0  0  0
  1  2  1  0  0  0  0
  2  3  2  0  0  0  0
  2  4  1  0  0  0  0
  4  5  2  0  0  0  0
  5  6  1  0  0  0  0
  6  7  2  0  0  0  0
  7  8  1  0  0  0  0
  7 25  1  0  0  0  0
  8  9  1  0  0  0  0
  9 10  1  0  0  0  0
 10 11  2  0  0  0  0
 10 12  1  0  0  0  0
 12 13  1  0  0  0  0
 13 14  1  0  0  0  0
 14 15  2  0  0  0  0
 15 16  1  0  0  0  0
 16 17  2  0  0  0  0
 17 18  1  0  0  0  0
 17 23  1  0  0  0  0
 18 19  1  0  0  0  0
 19 20  2  0  0  0  0
 20 21  1  0  0  0  0
 21 22  2  0  0  0  0
 22 18  1  0  0  0  0
 23 24  2  0  0  0  0
 24 14  1  0  0  0  0
 25 26  2  0  0  0  0
 26  4  1  0  0  0  0
M  END
>  <CHROM.1>
127.94871088,114.97580132,-120.18738997,121.32958559,-169.35779093,-176.26092887
41.53159603,-41.32640396,4.10752158,-2.89895652,1.10195453,-0.63230803

>  <Name>
design_8

>  <RI>
0

>  <Rbt.Current_Directory>
/home/ziqiaoxu/icml18-jtnn/VAEdesign

>  <Rbt.Executable>
rbdock ($Id: //depot/dev/client3/rdock/2013.1/src/exe/rbdock.cxx#4 $)

>  <Rbt.Library>
libRbt.so (2013.1, Build901 2013/11/27)

>  <Rbt.Parameter_File>
/export/apps/rDock/src/rDock_2013.1_src//data/scripts/dock.prm

>  <Rbt.Receptor>
/home/ziqiaoxu/icml18-jtnn/VAEdesign/targets/RdRp-SARS-CoV-2/pocket_docking.prm

>  <SCORE>
-22.1821

>  <SCORE.INTER>
-23.5475

>  <SCORE.INTER.CONST>
1

>  <SCORE.INTER.POLAR>
-2.64448

>  <SCORE.INTER.REPUL>
0

>  <SCORE.INTER.ROT>
6

>  <SCORE.INTER.VDW>
-25.9563

>  <SCORE.INTER.norm>
-0.905674

>  <SCORE.INTRA>
1.36537

>  <SCORE.INTRA.DIHEDRAL>
1.28236

>  <SCORE.INTRA.DIHEDRAL.0>
10.5768

>  <SCORE.INTRA.POLAR>
0

>  <SCORE.INTRA.POLAR.0>
0

>  <SCORE.INTRA.REPUL>
0

>  <SCORE.INTRA.REPUL.0>
0

>  <SCORE.INTRA.VDW>
0.724194

>  <SCORE.INTRA.VDW.0>
-2.0973

>  <SCORE.INTRA.norm>
0.0525144

>  <SCORE.RESTR>
0

>  <SCORE.RESTR.CAVITY>
0

>  <SCORE.RESTR.norm>
0

>  <SCORE.SYSTEM>
0

>  <SCORE.SYSTEM.CONST>
0

>  <SCORE.SYSTEM.DIHEDRAL>
0

>  <SCORE.SYSTEM.norm>
0

>  <SCORE.heavy>
26

>  <SCORE.norm>
-0.853159

$$$$
design_10
 OpenBabel05252019093D

 28 31  0  0  0  0  0  0  0  0999 V2000
   40.1334  -47.3466    6.5057 C   0  0  0  0  0  0  0  0  0  0  0  0
   41.0019  -46.4280    5.7194 C   0  0  0  0  0  0  0  0  0  0  0  0
   42.1908  -46.0076    6.2529 C   0  0  0  0  0  0  0  0  0  0  0  0
   43.0029  -45.1648    5.5426 C   0  0  0  0  0  0  0  0  0  0  0  0
   42.6164  -44.7472    4.2985 C   0  0  0  0  0  0  0  0  0  0  0  0
   41.4228  -45.1439    3.7146 C   0  0  0  0  0  0  0  0  0  0  0  0
   41.0216  -44.7076    2.3688 C   0  0  0  0  0  0  0  0  0  0  0  0
   41.9937  -43.9106    1.6661 N   0  0  0  0  0  0  0  0  0  0  0  0
   41.7763  -42.5868    1.5365 C   0  0  0  0  0  0  0  0  0  0  0  0
   42.6082  -41.6992    0.8431 C   0  0  0  0  0  0  0  0  0  0  0  0
   42.2650  -40.2779    0.8101 C   0  0  0  0  0  0  0  0  0  0  0  0
   43.0863  -39.5349    0.1747 O   0  0  0  0  0  0  0  0  0  0  0  0
   41.1259  -39.7462    1.4180 N   0  0  0  0  0  0  0  0  0  0  0  0
   40.7943  -38.3370    1.3766 C   0  0  0  0  0  0  0  0  0  0  0  0
   40.9653  -37.7361    2.7248 C   0  0  2  0  0  0  0  0  0  0  0  0
   39.9562  -38.2718    3.7299 C   0  0  0  0  0  0  0  0  0  0  0  0
   39.9272  -37.1212    4.7162 C   0  0  0  0  0  0  0  0  0  0  0  0
   40.0424  -35.9553    3.7587 C   0  0  0  0  0  0  0  0  0  0  0  0
   40.7633  -36.3648    2.6752 O   0  0  0  0  0  0  0  0  0  0  0  0
   43.7151  -42.2590    0.2678 C   0  0  0  0  0  0  0  0  0  0  0  0
   44.5450  -41.5808   -0.3877 O   0  0  0  0  0  0  0  0  0  0  0  0
   43.9666  -43.6064    0.3831 C   0  0  0  0  0  0  0  0  0  0  0  0
   45.1076  -44.1727   -0.1908 C   0  0  0  0  0  0  0  0  0  0  0  0
   45.3964  -45.5164   -0.0778 C   0  0  0  0  0  0  0  0  0  0  0  0
   44.5136  -46.2827    0.6260 C   0  0  0  0  0  0  0  0  0  0  0  0
   43.3672  -45.7528    1.2104 C   0  0  0  0  0  0  0  0  0  0  0  0
   43.0829  -44.4150    1.0938 C   0  0  0  0  0  0  0  0  0  0  0  0
   40.6394  -45.9843    4.4512 C   0  0  0  0  0  0  0  0  0  0  0  0
  1  2  1  0  0  0  0
  2  3  2  0  0  0  0
  3  4  1  0  0  0  0
  4  5  2  0  0  0  0
  5  6  1  0  0  0  0
  6  7  1  0  0  0  0
  6 28  2  0  0  0  0
  7  8  1  0  0  0  0
  8  9  1  0  0  0  0
  9 10  2  0  0  0  0
 10 11  1  0  0  0  0
 10 20  1  0  0  0  0
 11 12  2  0  0  0  0
 11 13  1  0  0  0  0
 13 14  1  0  0  0  0
 15 14  1  6  0  0  0
 15 16  1  0  0  0  0
 16 17  1  0  0  0  0
 17 18  1  0  0  0  0
 18 19  1  0  0  0  0
 19 15  1  0  0  0  0
 20 21  2  0  0  0  0
 20 22  1  0  0  0  0
 22 23  2  0  0  0  0
 23 24  1  0  0  0  0
 24 25  2  0  0  0  0
 25 26  1  0  0  0  0
 26 27  2  0  0  0  0
 27  8  1  0  0  0  0
 27 22  1  0  0  0  0
 28  2  1  0  0  0  0
M  END
>  <CHROM.1>
3.85441524,-105.96291542,178.95183490,-109.96920453,-67.01251393,42.14339095
-42.39464403,2.40017398,1.21287853,-0.94952000,2.75603294

>  <Name>
design_10

>  <RI>
0

>  <Rbt.Current_Directory>
/home/ziqiaoxu/icml18-jtnn/VAEdesign

>  <Rbt.Executable>
rbdock ($Id: //depot/dev/client3/rdock/2013.1/src/exe/rbdock.cxx#4 $)

>  <Rbt.Library>
libRbt.so (2013.1, Build901 2013/11/27)

>  <Rbt.Parameter_File>
/export/apps/rDock/src/rDock_2013.1_src//data/scripts/dock.prm

>  <Rbt.Receptor>
/home/ziqiaoxu/icml18-jtnn/VAEdesign/targets/RdRp-SARS-CoV-2/pocket_docking.prm

>  <SCORE>
-19.6047

>  <SCORE.INTER>
-19.4492

>  <SCORE.INTER.CONST>
1

>  <SCORE.INTER.POLAR>
-1.14564

>  <SCORE.INTER.REPUL>
0

>  <SCORE.INTER.ROT>
5

>  <SCORE.INTER.VDW>
-25.9541

>  <SCORE.INTER.norm>
-0.694616

>  <SCORE.INTRA>
-0.155453

>  <SCORE.INTRA.DIHEDRAL>
-1.40144

>  <SCORE.INTRA.DIHEDRAL.0>
5.82042

>  <SCORE.INTRA.POLAR>
0

>  <SCORE.INTRA.POLAR.0>
0

>  <SCORE.INTRA.REPUL>
0

>  <SCORE.INTRA.REPUL.0>
0

>  <SCORE.INTRA.VDW>
0.545268

>  <SCORE.INTRA.VDW.0>
-2.20718

>  <SCORE.INTRA.norm>
-0.0055519

>  <SCORE.RESTR>
0

>  <SCORE.RESTR.CAVITY>
0

>  <SCORE.RESTR.norm>
0

>  <SCORE.SYSTEM>
0

>  <SCORE.SYSTEM.CONST>
0

>  <SCORE.SYSTEM.DIHEDRAL>
0

>  <SCORE.SYSTEM.norm>
0

>  <SCORE.heavy>
28

>  <SCORE.norm>
-0.700168

$$$$
design_1
 OpenBabel05252019093D

 22 24  0  0  0  0  0  0  0  0999 V2000
   40.8719  -42.5520    8.1665 O   0  0  0  0  0  0  0  0  0  0  0  0
   40.3882  -41.9080    9.1173 C   0  0  0  0  0  0  0  0  0  0  0  0
   39.8432  -42.6337   10.2657 C   0  0  0  0  0  0  0  0  0  0  0  0
   40.8713  -44.0884   10.6939 S   0  0  0  0  0  0  0  0  0  0  0  0
   40.4069  -45.4043    9.5518 C   0  0  0  0  0  0  0  0  0  0  0  0
   41.0198  -45.7297    8.3943 N   0  0  0  0  0  0  0  0  0  0  0  0
   40.3918  -46.7662    7.8113 C   0  0  0  0  0  0  0  0  0  0  0  0
   40.5969  -47.4855    6.6361 C   0  0  0  0  0  0  0  0  0  0  0  0
   39.7827  -48.5342    6.2616 C   0  0  0  0  0  0  0  0  0  0  0  0
   38.7253  -48.8815    7.0853 C   0  0  0  0  0  0  0  0  0  0  0  0
   38.5116  -48.1746    8.2551 C   0  0  0  0  0  0  0  0  0  0  0  0
   39.3364  -47.1168    8.6282 C   0  0  0  0  0  0  0  0  0  0  0  0
   39.3820  -46.2672    9.6706 N   0  0  0  0  0  0  0  0  0  0  0  0
   40.3689  -40.5028    9.0823 N   0  0  0  0  0  0  0  0  0  0  0  0
   40.8868  -39.7061    7.9982 C   0  0  0  0  0  0  0  0  0  0  0  0
   39.8646  -38.7305    7.5318 C   0  0  0  0  0  0  0  0  0  0  0  0
   40.1439  -38.2364    6.1915 N   0  0  0  0  0  0  0  0  0  0  0  0
   39.7195  -36.8914    5.9750 C   0  0  0  0  0  0  0  0  0  0  0  0
   40.3268  -36.3907    4.6826 C   0  0  0  0  0  0  0  0  0  0  0  0
   40.9028  -37.4144    3.9438 O   0  0  0  0  0  0  0  0  0  0  0  0
   39.9531  -38.4324    3.8305 C   0  0  0  0  0  0  0  0  0  0  0  0
   39.8156  -39.1669    5.1651 C   0  0  0  0  0  0  0  0  0  0  0  0
  1  2  2  0  0  0  0
  2  3  1  0  0  0  0
  2 14  1  0  0  0  0
  3  4  1  0  0  0  0
  4  5  1  0  0  0  0
  5  6  2  0  0  0  0
  6  7  1  0  0  0  0
  7  8  2  0  0  0  0
  8  9  1  0  0  0  0
  9 10  2  0  0  0  0
 10 11  1  0  0  0  0
 11 12  2  0  0  0  0
 12 13  1  0  0  0  0
 12  7  1  0  0  0  0
 13  5  1  0  0  0  0
 14 15  1  0  0  0  0
 15 16  1  0  0  0  0
 16 17  1  0  0  0  0
 17 18  1  0  0  0  0
 18 19  1  0  0  0  0
 19 20  1  0  0  0  0
 20 21  1  0  0  0  0
 21 22  1  0  0  0  0
 22 17  1  0  0  0  0
M  END
>  <CHROM.1>
39.22565635,-80.64149390,95.48411874,127.87326044,-160.33864482,-147.86666166
40.15223436,-42.68260445,7.64945275,-1.25431656,1.42411931,2.52853984

>  <Name>
design_1

>  <RI>
0

>  <Rbt.Current_Directory>
/home/ziqiaoxu/icml18-jtnn/VAEdesign

>  <Rbt.Executable>
rbdock ($Id: //depot/dev/client3/rdock/2013.1/src/exe/rbdock.cxx#4 $)

>  <Rbt.Library>
libRbt.so (2013.1, Build901 2013/11/27)

>  <Rbt.Parameter_File>
/export/apps/rDock/src/rDock_2013.1_src//data/scripts/dock.prm

>  <Rbt.Receptor>
/home/ziqiaoxu/icml18-jtnn/VAEdesign/targets/RdRp-SARS-CoV-2/pocket_docking.prm

>  <SCORE>
-21.2425

>  <SCORE.INTER>
-20.828

>  <SCORE.INTER.CONST>
1

>  <SCORE.INTER.POLAR>
-1.95436

>  <SCORE.INTER.REPUL>
0.0741439

>  <SCORE.INTER.ROT>
6

>  <SCORE.INTER.VDW>
-25.9539

>  <SCORE.INTER.norm>
-0.946727

>  <SCORE.INTRA>
-0.414494

>  <SCORE.INTRA.DIHEDRAL>
2.72087

>  <SCORE.INTRA.DIHEDRAL.0>
6.63416

>  <SCORE.INTRA.POLAR>
0

>  <SCORE.INTRA.POLAR.0>
0

>  <SCORE.INTRA.REPUL>
0

>  <SCORE.INTRA.REPUL.0>
0

>  <SCORE.INTRA.VDW>
-1.77493

>  <SCORE.INTRA.VDW.0>
0.778173

>  <SCORE.INTRA.norm>
-0.0188406

>  <SCORE.RESTR>
0

>  <SCORE.RESTR.CAVITY>
0

>  <SCORE.RESTR.norm>
0

>  <SCORE.SYSTEM>
0

>  <SCORE.SYSTEM.CONST>
0

>  <SCORE.SYSTEM.DIHEDRAL>
0

>  <SCORE.SYSTEM.norm>
0

>  <SCORE.heavy>
22

>  <SCORE.norm>
-0.965568

$$$$
design_10
 OpenBabel05252019093D

 26 29  0  0  0  0  0  0  0  0999 V2000
   40.3478  -44.9976    9.8903 C   0  0  0  0  0  0  0  0  0  0  0  0
   40.1416  -43.5295    9.7625 C   0  0  0  0  0  0  0  0  0  0  0  0
   39.8772  -42.6921   10.7984 N   0  0  0  0  0  0  0  0  0  0  0  0
   39.7592  -41.4586   10.3113 N   0  0  0  0  0  0  0  0  0  0  0  0
   39.9385  -41.4524    8.9895 C   0  0  0  0  0  0  0  0  0  0  0  0
   39.9163  -40.2932    8.1180 C   0  0  0  0  0  0  0  0  0  0  0  0
   39.3145  -40.3519    6.8842 C   0  0  0  0  0  0  0  0  0  0  0  0
   39.2579  -39.2292    6.0478 C   0  0  0  0  0  0  0  0  0  0  0  0
   39.7964  -38.0302    6.4170 C   0  0  0  0  0  0  0  0  0  0  0  0
   39.7102  -36.7804    5.6088 C   0  0  0  0  0  0  0  0  0  0  0  0
   39.5065  -37.0677    4.2239 N   0  0  0  0  0  0  0  0  0  0  0  0
   40.4085  -36.5550    3.2573 C   0  0  0  0  0  0  0  0  0  0  0  0
   41.3905  -35.8403    3.5414 O   0  0  0  0  0  0  0  0  0  0  0  0
   40.1599  -36.8875    1.8330 C   0  0  0  0  0  0  0  0  0  0  0  0
   41.0647  -37.9945    1.4495 C   0  0  0  0  0  0  0  0  0  0  0  0
   40.7573  -39.3079    1.2813 C   0  0  0  0  0  0  0  0  0  0  0  0
   41.8986  -39.9391    0.9233 N   0  0  0  0  0  0  0  0  0  0  0  0
   42.1168  -41.2372    0.6439 C   0  0  0  0  0  0  0  0  0  0  0  0
   43.3868  -41.6820    0.2864 C   0  0  0  0  0  0  0  0  0  0  0  0
   44.4364  -40.8028    0.2148 C   0  0  0  0  0  0  0  0  0  0  0  0
   44.1918  -39.4607    0.5093 C   0  0  0  0  0  0  0  0  0  0  0  0
   42.9121  -39.0616    0.8607 C   0  0  0  0  0  0  0  0  0  0  0  0
   42.4040  -37.8666    1.1834 N   0  0  0  0  0  0  0  0  0  0  0  0
   40.4090  -37.9906    7.6795 C   0  0  0  0  0  0  0  0  0  0  0  0
   40.4688  -39.0825    8.5058 C   0  0  0  0  0  0  0  0  0  0  0  0
   40.1761  -42.7558    8.6625 N   0  0  0  0  0  0  0  0  0  0  0  0
  1  2  1  0  0  0  0
  2  3  2  0  0  0  0
  3  4  1  0  0  0  0
  4  5  1  0  0  0  0
  5  6  1  0  0  0  0
  5 26  2  0  0  0  0
  6  7  2  0  0  0  0
  7  8  1  0  0  0  0
  8  9  2  0  0  0  0
  9 10  1  0  0  0  0
  9 24  1  0  0  0  0
 10 11  1  0  0  0  0
 11 12  1  0  0  0  0
 12 13  2  0  0  0  0
 12 14  1  0  0  0  0
 14 15  1  0  0  0  0
 15 16  2  0  0  0  0
 16 17  1  0  0  0  0
 17 18  1  0  0  0  0
 18 19  2  0  0  0  0
 19 20  1  0  0  0  0
 20 21  2  0  0  0  0
 21 22  1  0  0  0  0
 22 23  2  0  0  0  0
 22 17  1  0  0  0  0
 23 15  1  0  0  0  0
 24 25  2  0  0  0  0
 25  6  1  0  0  0  0
 26  2  1  0  0  0  0
M  END
>  <CHROM.1>
-139.63468387,-23.78075244,-124.22930627,-100.18199686,103.91112544,40.89916040
-39.69619442,4.94901563,-2.13936205,1.09039074,-0.69580084

>  <Name>
design_10

>  <RI>
0

>  <Rbt.Current_Directory>
/home/ziqiaoxu/icml18-jtnn/VAEdesign

>  <Rbt.Executable>
rbdock ($Id: //depot/dev/client3/rdock/2013.1/src/exe/rbdock.cxx#4 $)

>  <Rbt.Library>
libRbt.so (2013.1, Build901 2013/11/27)

>  <Rbt.Parameter_File>
/export/apps/rDock/src/rDock_2013.1_src//data/scripts/dock.prm

>  <Rbt.Receptor>
/home/ziqiaoxu/icml18-jtnn/VAEdesign/targets/RdRp-SARS-CoV-2/pocket_docking.prm

>  <SCORE>
-18.9307

>  <SCORE.INTER>
-20.971

>  <SCORE.INTER.CONST>
1

>  <SCORE.INTER.POLAR>
-1.59881

>  <SCORE.INTER.REPUL>
0.00372586

>  <SCORE.INTER.ROT>
5

>  <SCORE.INTER.VDW>
-25.9536

>  <SCORE.INTER.norm>
-0.806576

>  <SCORE.INTRA>
2.04023

>  <SCORE.INTRA.DIHEDRAL>
4.29179

>  <SCORE.INTRA.DIHEDRAL.0>
4.90384

>  <SCORE.INTRA.POLAR>
0

>  <SCORE.INTRA.POLAR.0>
0

>  <SCORE.INTRA.REPUL>
0

>  <SCORE.INTRA.REPUL.0>
0

>  <SCORE.INTRA.VDW>
-0.105669

>  <SCORE.INTRA.VDW.0>
-1.94884

>  <SCORE.INTRA.norm>
0.0784703

>  <SCORE.RESTR>
0

>  <SCORE.RESTR.CAVITY>
0

>  <SCORE.RESTR.norm>
0

>  <SCORE.SYSTEM>
0

>  <SCORE.SYSTEM.CONST>
0

>  <SCORE.SYSTEM.DIHEDRAL>
0

>  <SCORE.SYSTEM.norm>
0

>  <SCORE.heavy>
26

>  <SCORE.norm>
-0.728105

$$$$
design_8
 OpenBabel05252019093D

 26 28  0  0  0  0  0  0  0  0999 V2000
   39.2580  -48.6534    6.4065 C   0  0  0  0  0  0  0  0  0  0  0  0
   39.6816  -47.6874    7.4489 C   0  0  0  0  0  0  0  0  0  0  0  0
   38.9258  -47.4330    8.5637 C   0  0  0  0  0  0  0  0  0  0  0  0
   39.3630  -46.5258    9.5042 C   0  0  0  0  0  0  0  0  0  0  0  0
   40.5512  -45.8709    9.3379 C   0  0  0  0  0  0  0  0  0  0  0  0
   41.3679  -46.0933    8.2119 C   0  0  0  0  0  0  0  0  0  0  0  0
   42.6080  -45.3435    8.1424 C   0  0  0  0  0  0  0  0  0  0  0  0
   43.1588  -44.7246    9.2188 N   0  0  0  0  0  0  0  0  0  0  0  0
   44.2667  -44.1276    8.8559 N   0  0  0  0  0  0  0  0  0  0  0  0
   44.4862  -44.3224    7.5625 C   0  0  0  0  0  0  0  0  0  0  0  0
   45.8249  -43.7389    6.5769 S   0  0  0  0  0  0  0  0  0  0  0  0
   47.2720  -43.3214    7.5682 C   0  0  0  0  0  0  0  0  0  0  0  0
   46.8769  -42.7078    8.9039 C   0  0  0  0  0  0  0  0  0  0  0  0
   46.8679  -41.4595    8.8913 O   0  0  0  0  0  0  0  0  0  0  0  0
   46.5793  -43.5698    9.9561 N   0  0  0  0  0  0  0  0  0  0  0  0
   46.1952  -43.1903   11.2592 C   0  0  0  0  0  0  0  0  0  0  0  0
   45.8542  -41.9187   11.6548 C   0  0  0  0  0  0  0  0  0  0  0  0
   45.4827  -41.6053   12.9493 C   0  0  0  0  0  0  0  0  0  0  0  0
   45.4521  -42.6075   13.8851 C   0  0  0  0  0  0  0  0  0  0  0  0
   45.7807  -43.9063   13.5631 C   0  0  0  0  0  0  0  0  0  0  0  0
   45.7316  -44.9574   14.6156 C   0  0  0  0  0  0  0  0  0  0  0  0
   46.1405  -44.1660   12.2737 C   0  0  0  0  0  0  0  0  0  0  0  0
   46.4972  -45.5456   11.9005 C   0  0  0  0  0  0  0  0  0  0  0  0
   43.4313  -45.0874    7.1405 N   0  0  0  0  0  0  0  0  0  0  0  0
   43.3227  -45.5062    5.7547 C   0  0  0  0  0  0  0  0  0  0  0  0
   40.8942  -46.9940    7.3171 C   0  0  0  0  0  0  0  0  0  0  0  0
  1  2  1  0  0  0  0
  2  3  2  0  0  0  0
  3  4  1  0  0  0  0
  4  5  2  0  0  0  0
  5  6  1  0  0  0  0
  6  7  1  0  0  0  0
  6 26  2  0  0  0  0
  7  8  2  0  0  0  0
  8  9  1  0  0  0  0
  9 10  2  0  0  0  0
 10 11  1  0  0  0  0
 10 24  1  0  0  0  0
 11 12  1  0  0  0  0
 12 13  1  0  0  0  0
 13 14  2  0  0  0  0
 13 15  1  0  0  0  0
 15 16  1  0  0  0  0
 16 17  2  0  0  0  0
 17 18  1  0  0  0  0
 18 19  2  0  0  0  0
 19 20  1  0  0  0  0
 20 21  1  0  0  0  0
 20 22  2  0  0  0  0
 22 23  1  0  0  0  0
 22 16  1  0  0  0  0
 24 25  1  0  0  0  0
 24  7  1  0  0  0  0
 26  2  1  0  0  0  0
M  END
>  <CHROM.1>
16.80268997,21.59794809,-36.27054605,-95.01509956,10.49339077,44.05296941
-44.60857039,9.34735107,2.60376677,-0.57198670,-1.59369161

>  <Name>
design_8

>  <RI>
0

>  <Rbt.Current_Directory>
/home/ziqiaoxu/icml18-jtnn/VAEdesign

>  <Rbt.Executable>
rbdock ($Id: //depot/dev/client3/rdock/2013.1/src/exe/rbdock.cxx#4 $)

>  <Rbt.Library>
libRbt.so (2013.1, Build901 2013/11/27)

>  <Rbt.Parameter_File>
/export/apps/rDock/src/rDock_2013.1_src//data/scripts/dock.prm

>  <Rbt.Receptor>
/home/ziqiaoxu/icml18-jtnn/VAEdesign/targets/RdRp-SARS-CoV-2/pocket_docking.prm

>  <SCORE>
-19.1987

>  <SCORE.INTER>
-18.5937

>  <SCORE.INTER.CONST>
1

>  <SCORE.INTER.POLAR>
-0.894427

>  <SCORE.INTER.REPUL>
0

>  <SCORE.INTER.ROT>
5

>  <SCORE.INTER.VDW>
-25.9526

>  <SCORE.INTER.norm>
-0.715141

>  <SCORE.INTRA>
-0.605065

>  <SCORE.INTRA.DIHEDRAL>
2.79374

>  <SCORE.INTRA.DIHEDRAL.0>
1.40828

>  <SCORE.INTRA.POLAR>
0

>  <SCORE.INTRA.POLAR.0>
0

>  <SCORE.INTRA.REPUL>
0

>  <SCORE.INTRA.REPUL.0>
0

>  <SCORE.INTRA.VDW>
-2.00194

>  <SCORE.INTRA.VDW.0>
1.24005

>  <SCORE.INTRA.norm>
-0.0232717

>  <SCORE.RESTR>
0

>  <SCORE.RESTR.CAVITY>
0

>  <SCORE.RESTR.norm>
0

>  <SCORE.SYSTEM>
0

>  <SCORE.SYSTEM.CONST>
0

>  <SCORE.SYSTEM.DIHEDRAL>
0

>  <SCORE.SYSTEM.norm>
0

>  <SCORE.heavy>
26

>  <SCORE.norm>
-0.738413

$$$$
design_17
 OpenBabel05252019093D

 26 28  0  0  0  0  0  0  0  0999 V2000
   44.1710  -37.0071    1.0598 C   0  0  0  0  0  0  0  0  0  0  0  0
   43.0655  -37.8468    0.8239 O   0  0  0  0  0  0  0  0  0  0  0  0
   43.2292  -39.1805    0.5158 C   0  0  0  0  0  0  0  0  0  0  0  0
   44.2590  -39.6750   -0.2509 C   0  0  0  0  0  0  0  0  0  0  0  0
   44.3456  -41.0472   -0.5063 C   0  0  0  0  0  0  0  0  0  0  0  0
   43.4361  -41.9503   -0.0215 C   0  0  0  0  0  0  0  0  0  0  0  0
   42.4007  -41.4477    0.7496 C   0  0  0  0  0  0  0  0  0  0  0  0
   41.4657  -42.3371    1.3454 N   0  0  0  0  0  0  0  0  0  0  0  0
   41.7463  -43.6164    1.8493 C   0  0  0  0  0  0  0  0  0  0  0  0
   42.9267  -44.0830    1.8258 O   0  0  0  0  0  0  0  0  0  0  0  0
   40.7318  -44.5052    2.4207 C   0  0  0  0  0  0  0  0  0  0  0  0
   41.1889  -45.4608    3.3775 N   0  0  0  0  0  0  0  0  0  0  0  0
   41.7521  -45.0564    4.5972 C   0  0  0  0  0  0  0  0  0  0  0  0
   41.8834  -43.8470    4.8544 O   0  0  0  0  0  0  0  0  0  0  0  0
   42.1845  -46.1315    5.5560 C   0  0  0  0  0  0  0  0  0  0  0  0
   41.4182  -46.2128    6.7714 C   0  0  0  0  0  0  0  0  0  0  0  0
   41.6675  -45.3478    7.8154 C   0  0  0  0  0  0  0  0  0  0  0  0
   40.9667  -45.4430    9.0102 C   0  0  0  0  0  0  0  0  0  0  0  0
   39.9994  -46.4009    9.1938 C   0  0  0  0  0  0  0  0  0  0  0  0
   39.7398  -47.2745    8.1551 C   0  0  0  0  0  0  0  0  0  0  0  0
   38.7616  -48.2503    8.3141 C   0  0  0  0  0  0  0  0  0  0  0  0
   38.4883  -49.1232    7.2849 C   0  0  0  0  0  0  0  0  0  0  0  0
   39.1907  -49.0209    6.1005 C   0  0  0  0  0  0  0  0  0  0  0  0
   40.1755  -48.0453    5.9261 C   0  0  0  0  0  0  0  0  0  0  0  0
   40.4481  -47.1771    6.9504 C   0  0  0  0  0  0  0  0  0  0  0  0
   42.3028  -40.1026    1.0085 C   0  0  0  0  0  0  0  0  0  0  0  0
  1  2  1  0  0  0  0
  2  3  1  0  0  0  0
  3  4  2  0  0  0  0
  4  5  1  0  0  0  0
  5  6  2  0  0  0  0
  6  7  1  0  0  0  0
  7  8  1  0  0  0  0
  7 26  2  0  0  0  0
  8  9  1  0  0  0  0
  9 10  2  0  0  0  0
  9 11  1  0  0  0  0
 11 12  1  0  0  0  0
 12 13  1  0  0  0  0
 13 14  2  0  0  0  0
 13 15  1  0  0  0  0
 15 16  1  0  0  0  0
 16 17  2  0  0  0  0
 17 18  1  0  0  0  0
 18 19  2  0  0  0  0
 19 20  1  0  0  0  0
 20 21  2  0  0  0  0
 21 22  1  0  0  0  0
 22 23  2  0  0  0  0
 23 24  1  0  0  0  0
 24 25  2  0  0  0  0
 25 16  1  0  0  0  0
 25 20  1  0  0  0  0
 26  3  1  0  0  0  0
M  END
>  <CHROM.1>
-35.88505490,35.00610163,-153.70404211,63.22222106,-112.49849658,-80.40213176
41.64835230,-43.96834251,3.94764748,-0.42113781,1.22517291,1.27766746

>  <Name>
design_17

>  <RI>
0

>  <Rbt.Current_Directory>
/home/ziqiaoxu/icml18-jtnn/VAEdesign

>  <Rbt.Executable>
rbdock ($Id: //depot/dev/client3/rdock/2013.1/src/exe/rbdock.cxx#4 $)

>  <Rbt.Library>
libRbt.so (2013.1, Build901 2013/11/27)

>  <Rbt.Parameter_File>
/export/apps/rDock/src/rDock_2013.1_src//data/scripts/dock.prm

>  <Rbt.Receptor>
/home/ziqiaoxu/icml18-jtnn/VAEdesign/targets/RdRp-SARS-CoV-2/pocket_docking.prm

>  <SCORE>
-21.8768

>  <SCORE.INTER>
-21.8786

>  <SCORE.INTER.CONST>
1

>  <SCORE.INTER.POLAR>
-2.15478

>  <SCORE.INTER.REPUL>
0

>  <SCORE.INTER.ROT>
6

>  <SCORE.INTER.VDW>
-25.9524

>  <SCORE.INTER.norm>
-0.841485

>  <SCORE.INTRA>
0.00179495

>  <SCORE.INTRA.DIHEDRAL>
2.52704

>  <SCORE.INTRA.DIHEDRAL.0>
8.43822

>  <SCORE.INTRA.POLAR>
0

>  <SCORE.INTRA.POLAR.0>
0

>  <SCORE.INTRA.REPUL>
0

>  <SCORE.INTRA.REPUL.0>
0

>  <SCORE.INTRA.VDW>
-1.26172

>  <SCORE.INTRA.VDW.0>
0.0389406

>  <SCORE.INTRA.norm>
6.90364e-05

>  <SCORE.RESTR>
0

>  <SCORE.RESTR.CAVITY>
0

>  <SCORE.RESTR.norm>
0

>  <SCORE.SYSTEM>
0

>  <SCORE.SYSTEM.CONST>
0

>  <SCORE.SYSTEM.DIHEDRAL>
0

>  <SCORE.SYSTEM.norm>
0

>  <SCORE.heavy>
26

>  <SCORE.norm>
-0.841416

$$$$
design_13
 OpenBabel05252019093D

 25 27  0  0  0  0  0  0  0  0999 V2000
   46.7199  -45.8820   11.3356 N   0  0  0  0  0  0  0  0  0  0  0  0
   45.5879  -45.3676   12.0111 C   0  0  0  0  0  0  0  0  0  0  0  0
   44.9642  -46.0025   12.8786 O   0  0  0  0  0  0  0  0  0  0  0  0
   45.1330  -43.9911   11.6514 C   0  0  0  0  0  0  0  0  0  0  0  0
   45.8322  -43.5318   10.4126 C   0  0  0  0  0  0  0  0  0  0  0  0
   45.5250  -44.3735    9.2918 N   0  0  0  0  0  0  0  0  0  0  0  0
   44.1718  -44.6100    8.8529 C   0  0  0  0  0  0  0  0  0  0  0  0
   43.2483  -44.0594    9.4683 O   0  0  0  0  0  0  0  0  0  0  0  0
   43.9470  -45.4491    7.7525 N   0  0  0  0  0  0  0  0  0  0  0  0
   42.7319  -45.8119    7.1559 C   0  0  0  0  0  0  0  0  0  0  0  0
   41.6706  -46.2856    7.8877 C   0  0  0  0  0  0  0  0  0  0  0  0
   40.4621  -46.6105    7.2733 C   0  0  0  0  0  0  0  0  0  0  0  0
   40.3234  -46.4575    5.9241 C   0  0  0  0  0  0  0  0  0  0  0  0
   41.4064  -45.9762    5.1920 C   0  0  0  0  0  0  0  0  0  0  0  0
   42.6029  -45.6485    5.7505 C   0  0  0  0  0  0  0  0  0  0  0  0
   43.7509  -45.1394    5.0170 C   0  0  0  0  0  0  0  0  0  0  0  0
   43.9810  -45.7058    3.7665 N   0  0  0  0  0  0  0  0  0  0  0  0
   43.0730  -45.5706    2.7119 C   0  0  0  0  0  0  0  0  0  0  0  0
   43.8135  -45.8901    1.4736 C   0  0  0  0  0  0  0  0  0  0  0  0
   43.3991  -46.0567    0.1680 C   0  0  0  0  0  0  0  0  0  0  0  0
   44.3425  -46.3593   -0.8039 C   0  0  0  0  0  0  0  0  0  0  0  0
   45.6849  -46.4923   -0.4666 C   0  0  0  0  0  0  0  0  0  0  0  0
   46.0796  -46.3228    0.8392 C   0  0  0  0  0  0  0  0  0  0  0  0
   45.1333  -46.0188    1.8169 C   0  0  0  0  0  0  0  0  0  0  0  0
   45.2943  -45.7900    3.2720 C   0  0  0  0  0  0  0  0  0  0  0  0
  1  2  1  0  0  0  0
  2  3  2  0  0  0  0
  2  4  1  0  0  0  0
  4  5  1  0  0  0  0
  5  6  1  0  0  0  0
  6  7  1  0  0  0  0
  7  8  2  0  0  0  0
  7  9  1  0  0  0  0
  9 10  1  0  0  0  0
 10 11  2  0  0  0  0
 11 12  1  0  0  0  0
 12 13  2  0  0  0  0
 13 14  1  0  0  0  0
 14 15  2  0  0  0  0
 15 16  1  0  0  0  0
 15 10  1  0  0  0  0
 16 17  1  0  0  0  0
 17 18  1  0  0  0  0
 18 19  1  0  0  0  0
 19 20  2  0  0  0  0
 20 21  1  0  0  0  0
 21 22  2  0  0  0  0
 22 23  1  0  0  0  0
 23 24  2  0  0  0  0
 24 25  1  0  0  0  0
 24 19  1  0  0  0  0
 25 17  1  0  0  0  0
M  END
>  <CHROM.1>
11.67988677,61.89318909,56.54238117,-50.12130930,141.47668962,64.07238733
44.00807366,-45.55438630,6.18759813,-1.50727617,-0.14435459,-1.67412529

>  <Name>
design_13

>  <RI>
0

>  <Rbt.Current_Directory>
/home/ziqiaoxu/icml18-jtnn/VAEdesign

>  <Rbt.Executable>
rbdock ($Id: //depot/dev/client3/rdock/2013.1/src/exe/rbdock.cxx#4 $)

>  <Rbt.Library>
libRbt.so (2013.1, Build901 2013/11/27)

>  <Rbt.Parameter_File>
/export/apps/rDock/src/rDock_2013.1_src//data/scripts/dock.prm

>  <Rbt.Receptor>
/home/ziqiaoxu/icml18-jtnn/VAEdesign/targets/RdRp-SARS-CoV-2/pocket_docking.prm

>  <SCORE>
-20.8129

>  <SCORE.INTER>
-23.57

>  <SCORE.INTER.CONST>
1

>  <SCORE.INTER.POLAR>
-2.65289

>  <SCORE.INTER.REPUL>
0

>  <SCORE.INTER.ROT>
6

>  <SCORE.INTER.VDW>
-25.9502

>  <SCORE.INTER.norm>
-0.9428

>  <SCORE.INTRA>
2.75714

>  <SCORE.INTRA.DIHEDRAL>
9.32848

>  <SCORE.INTRA.DIHEDRAL.0>
3.4331

>  <SCORE.INTRA.POLAR>
0

>  <SCORE.INTRA.POLAR.0>
0

>  <SCORE.INTRA.REPUL>
0

>  <SCORE.INTRA.REPUL.0>
0

>  <SCORE.INTRA.VDW>
-1.9071

>  <SCORE.INTRA.VDW.0>
2.47603

>  <SCORE.INTRA.norm>
0.110286

>  <SCORE.RESTR>
0

>  <SCORE.RESTR.CAVITY>
0

>  <SCORE.RESTR.norm>
0

>  <SCORE.SYSTEM>
0

>  <SCORE.SYSTEM.CONST>
0

>  <SCORE.SYSTEM.DIHEDRAL>
0

>  <SCORE.SYSTEM.norm>
0

>  <SCORE.heavy>
25

>  <SCORE.norm>
-0.832514

$$$$
design_16
 OpenBabel05252019093D

 24 26  0  0  0  0  0  0  0  0999 V2000
   39.4857  -48.2173    7.0416 C   0  0  0  0  0  0  0  0  0  0  0  0
   40.2439  -47.1764    7.8220 C   0  0  0  0  0  0  0  0  0  0  0  0
   41.3693  -46.5668    7.5260 N   0  0  0  0  0  0  0  0  0  0  0  0
   41.8689  -45.6887    8.3400 C   0  0  0  0  0  0  0  0  0  0  0  0
   43.1424  -44.9864    8.0250 C   0  0  0  0  0  0  0  0  0  0  0  0
   43.8034  -44.2383    8.9714 C   0  0  0  0  0  0  0  0  0  0  0  0
   44.9865  -43.5816    8.6962 C   0  0  0  0  0  0  0  0  0  0  0  0
   45.5515  -43.6585    7.4380 C   0  0  0  0  0  0  0  0  0  0  0  0
   44.9031  -44.4020    6.4818 C   0  0  0  0  0  0  0  0  0  0  0  0
   45.4412  -44.5275    5.1496 C   0  0  0  0  0  0  0  0  0  0  0  0
   45.5083  -43.4943    4.3930 O   0  0  0  0  0  0  0  0  0  0  0  0
   45.9088  -45.7444    4.6141 N   0  0  0  0  0  0  0  0  0  0  0  0
   46.4496  -45.8698    3.2764 C   0  0  0  0  0  0  0  0  0  0  0  0
   45.3500  -45.8503    2.2788 C   0  0  0  0  0  0  0  0  0  0  0  0
   45.6319  -46.2305    0.9669 C   0  0  0  0  0  0  0  0  0  0  0  0
   44.6213  -46.2097    0.0463 C   0  0  0  0  0  0  0  0  0  0  0  0
   43.3530  -45.8218    0.4069 C   0  0  0  0  0  0  0  0  0  0  0  0
   43.0914  -45.4474    1.7154 C   0  0  0  0  0  0  0  0  0  0  0  0
   41.7786  -45.0349    2.1360 C   0  0  0  0  0  0  0  0  0  0  0  0
   40.7300  -44.7031    2.4646 N   0  0  0  0  0  0  0  0  0  0  0  0
   44.0930  -45.4599    2.6608 C   0  0  0  0  0  0  0  0  0  0  0  0
   43.7026  -45.0629    6.7764 C   0  0  0  0  0  0  0  0  0  0  0  0
   41.1699  -45.4391    9.5015 C   0  0  0  0  0  0  0  0  0  0  0  0
   39.8379  -46.4961    9.3297 S   0  0  0  0  0  0  0  0  0  0  0  0
  1  2  1  0  0  0  0
  2  3  2  0  0  0  0
  3  4  1  0  0  0  0
  4  5  1  0  0  0  0
  4 23  2  0  0  0  0
  5  6  2  0  0  0  0
  6  7  1  0  0  0  0
  7  8  2  0  0  0  0
  8  9  1  0  0  0  0
  9 10  1  0  0  0  0
  9 22  2  0  0  0  0
 10 11  2  0  0  0  0
 10 12  1  0  0  0  0
 12 13  1  0  0  0  0
 13 14  1  0  0  0  0
 14 15  2  0  0  0  0
 15 16  1  0  0  0  0
 16 17  2  0  0  0  0
 17 18  1  0  0  0  0
 18 19  1  0  0  0  0
 18 21  2  0  0  0  0
 19 20  3  0  0  0  0
 21 14  1  0  0  0  0
 22  5  1  0  0  0  0
 23 24  1  0  0  0  0
 24  2  1  0  0  0  0
M  END
>  <CHROM.1>
-168.28543432,-65.93294731,-75.96832588,-167.04021248,43.22259652,-45.48232320
5.47910337,2.08674932,0.41009425,1.42301392

>  <Name>
design_16

>  <RI>
0

>  <Rbt.Current_Directory>
/home/ziqiaoxu/icml18-jtnn/VAEdesign

>  <Rbt.Executable>
rbdock ($Id: //depot/dev/client3/rdock/2013.1/src/exe/rbdock.cxx#4 $)

>  <Rbt.Library>
libRbt.so (2013.1, Build901 2013/11/27)

>  <Rbt.Parameter_File>
/export/apps/rDock/src/rDock_2013.1_src//data/scripts/dock.prm

>  <Rbt.Receptor>
/home/ziqiaoxu/icml18-jtnn/VAEdesign/targets/RdRp-SARS-CoV-2/pocket_docking.prm

>  <SCORE>
-14.3863

>  <SCORE.INTER>
-19.2363

>  <SCORE.INTER.CONST>
1

>  <SCORE.INTER.POLAR>
-0.887783

>  <SCORE.INTER.REPUL>
0.0654791

>  <SCORE.INTER.ROT>
4

>  <SCORE.INTER.VDW>
-25.9453

>  <SCORE.INTER.norm>
-0.801513

>  <SCORE.INTRA>
4.85003

>  <SCORE.INTRA.DIHEDRAL>
11.0179

>  <SCORE.INTRA.DIHEDRAL.0>
2.07698

>  <SCORE.INTRA.POLAR>
0

>  <SCORE.INTRA.POLAR.0>
0

>  <SCORE.INTRA.REPUL>
0

>  <SCORE.INTRA.REPUL.0>
0

>  <SCORE.INTRA.VDW>
-0.65891

>  <SCORE.INTRA.VDW.0>
-0.178491

>  <SCORE.INTRA.norm>
0.202084

>  <SCORE.RESTR>
0

>  <SCORE.RESTR.CAVITY>
0

>  <SCORE.RESTR.norm>
0

>  <SCORE.SYSTEM>
0

>  <SCORE.SYSTEM.CONST>
0

>  <SCORE.SYSTEM.DIHEDRAL>
0

>  <SCORE.SYSTEM.norm>
0

>  <SCORE.heavy>
24

>  <SCORE.norm>
-0.599429

$$$$
design_13
 OpenBabel05252019093D

 22 24  0  0  0  0  0  0  0  0999 V2000
   41.1940  -42.8093    8.6557 O   0  0  0  0  0  0  0  0  0  0  0  0
   40.1708  -42.8953    9.3829 C   0  0  0  0  0  0  0  0  0  0  0  0
   39.2852  -41.7935    9.4667 N   0  0  0  0  0  0  0  0  0  0  0  0
   39.5642  -40.5879    8.7163 C   0  0  0  0  0  0  0  0  0  0  0  0
   38.4810  -40.4272    7.6750 C   0  0  0  0  0  0  0  0  0  0  0  0
   38.6178  -41.4505    6.5893 C   0  0  0  0  0  0  0  0  0  0  0  0
   37.4018  -42.1492    6.3043 N   0  0  0  0  0  0  0  0  0  0  0  0
   36.1302  -41.7705    6.2482 C   0  0  0  0  0  0  0  0  0  0  0  0
   35.3326  -42.7939    5.9334 N   0  0  0  0  0  0  0  0  0  0  0  0
   36.0978  -43.9022    5.7725 C   0  0  0  0  0  0  0  0  0  0  0  0
   35.8240  -45.2145    5.4509 C   0  0  0  0  0  0  0  0  0  0  0  0
   36.8138  -46.1616    5.3495 C   0  0  0  0  0  0  0  0  0  0  0  0
   38.1052  -45.7605    5.5806 C   0  0  0  0  0  0  0  0  0  0  0  0
   38.3821  -44.4479    5.9025 C   0  0  0  0  0  0  0  0  0  0  0  0
   37.3840  -43.4819    6.0073 C   0  0  0  0  0  0  0  0  0  0  0  0
   39.8976  -44.0871   10.1192 N   0  0  0  0  0  0  0  0  0  0  0  0
   40.7966  -45.1818   10.0249 C   0  0  0  0  0  0  0  0  0  0  0  0
   40.2918  -46.2330    9.0539 C   0  0  0  0  0  0  0  0  0  0  0  0
   39.0920  -46.8666    9.2674 C   0  0  0  0  0  0  0  0  0  0  0  0
   39.0167  -47.9169    7.9209 S   0  0  0  0  0  0  0  0  0  0  0  0
   40.4939  -47.4913    7.1821 C   0  0  0  0  0  0  0  0  0  0  0  0
   40.9673  -46.5689    8.0025 N   0  0  0  0  0  0  0  0  0  0  0  0
  1  2  2  0  0  0  0
  2  3  1  0  0  0  0
  2 16  1  0  0  0  0
  3  4  1  0  0  0  0
  4  5  1  0  0  0  0
  5  6  1  0  0  0  0
  6  7  1  0  0  0  0
  7  8  1  0  0  0  0
  8  9  2  0  0  0  0
  9 10  1  0  0  0  0
 10 11  2  0  0  0  0
 11 12  1  0  0  0  0
 12 13  2  0  0  0  0
 13 14  1  0  0  0  0
 14 15  2  0  0  0  0
 15  7  1  0  0  0  0
 15 10  1  0  0  0  0
 16 17  1  0  0  0  0
 17 18  1  0  0  0  0
 18 19  2  0  0  0  0
 19 20  1  0  0  0  0
 20 21  1  0  0  0  0
 21 22  2  0  0  0  0
 22 18  1  0  0  0  0
M  END
>  <CHROM.1>
114.11069008,-71.14236127,130.04877665,38.37662102,-99.43852043,-60.44359381
38.66721630,-44.26452835,7.55475920,-0.96820316,-0.74317611,0.13868930

>  <Name>
design_13

>  <RI>
0

>  <Rbt.Current_Directory>
/home/ziqiaoxu/icml18-jtnn/VAEdesign

>  <Rbt.Executable>
rbdock ($Id: //depot/dev/client3/rdock/2013.1/src/exe/rbdock.cxx#4 $)

>  <Rbt.Library>
libRbt.so (2013.1, Build901 2013/11/27)

>  <Rbt.Parameter_File>
/export/apps/rDock/src/rDock_2013.1_src//data/scripts/dock.prm

>  <Rbt.Receptor>
/home/ziqiaoxu/icml18-jtnn/VAEdesign/targets/RdRp-SARS-CoV-2/pocket_docking.prm

>  <SCORE>
-16.3807

>  <SCORE.INTER>
-18.0107

>  <SCORE.INTER.CONST>
1

>  <SCORE.INTER.POLAR>
-1.0198

>  <SCORE.INTER.REPUL>
0

>  <SCORE.INTER.ROT>
6

>  <SCORE.INTER.VDW>
-25.9434

>  <SCORE.INTER.norm>
-0.818668

>  <SCORE.INTRA>
1.62998

>  <SCORE.INTRA.DIHEDRAL>
7.79615

>  <SCORE.INTRA.DIHEDRAL.0>
5.05466

>  <SCORE.INTRA.POLAR>
0

>  <SCORE.INTRA.POLAR.0>
0

>  <SCORE.INTRA.REPUL>
0

>  <SCORE.INTRA.REPUL.0>
0

>  <SCORE.INTRA.VDW>
-2.2681

>  <SCORE.INTRA.VDW.0>
-0.922178

>  <SCORE.INTRA.norm>
0.0740899

>  <SCORE.RESTR>
0

>  <SCORE.RESTR.CAVITY>
0

>  <SCORE.RESTR.norm>
0

>  <SCORE.SYSTEM>
0

>  <SCORE.SYSTEM.CONST>
0

>  <SCORE.SYSTEM.DIHEDRAL>
0

>  <SCORE.SYSTEM.norm>
0

>  <SCORE.heavy>
22

>  <SCORE.norm>
-0.744578

$$$$
design_12
 OpenBabel05252019093D

 25 27  0  0  0  0  0  0  0  0999 V2000
   47.0452  -45.6947    3.8094 C   0  0  0  0  0  0  0  0  0  0  0  0
   46.5291  -45.2001    5.1237 C   0  0  0  0  0  0  0  0  0  0  0  0
   47.1548  -44.3622    5.9689 N   0  0  0  0  0  0  0  0  0  0  0  0
   46.4054  -44.1503    7.0176 N   0  0  0  0  0  0  0  0  0  0  0  0
   45.2573  -44.8474    6.8918 C   0  0  0  0  0  0  0  0  0  0  0  0
   44.1417  -44.8985    7.8246 C   0  0  0  0  0  0  0  0  0  0  0  0
   43.0049  -45.5967    7.4894 C   0  0  0  0  0  0  0  0  0  0  0  0
   41.9477  -45.6443    8.3634 C   0  0  0  0  0  0  0  0  0  0  0  0
   42.0480  -44.9875    9.5657 C   0  0  0  0  0  0  0  0  0  0  0  0
   40.9067  -45.0193   10.5555 C   0  0  0  0  0  0  0  0  0  0  0  0
   40.0745  -46.1406   10.1896 N   0  0  0  0  0  0  0  0  0  0  0  0
   38.9958  -45.8980    9.2466 C   0  0  0  0  0  0  0  0  0  0  0  0
   38.8714  -44.7435    8.8289 O   0  0  0  0  0  0  0  0  0  0  0  0
   38.1916  -47.0440    8.9073 C   0  0  0  0  0  0  0  0  0  0  0  0
   38.4208  -47.8049    7.6780 C   0  0  0  0  0  0  0  0  0  0  0  0
   38.5092  -47.1108    6.4267 N   0  0  0  0  0  0  0  0  0  0  0  0
   37.3290  -46.6840    5.8702 C   0  0  0  0  0  0  0  0  0  0  0  0
   37.2578  -46.0620    4.6501 C   0  0  0  0  0  0  0  0  0  0  0  0
   38.3939  -45.8301    3.9064 C   0  0  0  0  0  0  0  0  0  0  0  0
   39.5810  -46.2540    4.4584 C   0  0  0  0  0  0  0  0  0  0  0  0
   39.5995  -46.8808    5.7035 C   0  0  0  0  0  0  0  0  0  0  0  0
   40.7286  -47.2246    6.1327 O   0  0  0  0  0  0  0  0  0  0  0  0
   43.1940  -44.2941    9.8834 C   0  0  0  0  0  0  0  0  0  0  0  0
   44.2725  -44.2294    9.0238 C   0  0  0  0  0  0  0  0  0  0  0  0
   45.3543  -45.4979    5.6999 N   0  0  0  0  0  0  0  0  0  0  0  0
  1  2  1  0  0  0  0
  2  3  2  0  0  0  0
  3  4  1  0  0  0  0
  4  5  1  0  0  0  0
  5  6  1  0  0  0  0
  5 25  2  0  0  0  0
  6  7  2  0  0  0  0
  7  8  1  0  0  0  0
  8  9  2  0  0  0  0
  9 10  1  0  0  0  0
  9 23  1  0  0  0  0
 10 11  1  0  0  0  0
 11 12  1  0  0  0  0
 12 13  2  0  0  0  0
 12 14  1  0  0  0  0
 14 15  1  0  0  0  0
 15 16  1  0  0  0  0
 16 17  1  0  0  0  0
 17 18  2  0  0  0  0
 18 19  1  0  0  0  0
 19 20  2  0  0  0  0
 20 21  1  0  0  0  0
 21 22  2  0  0  0  0
 21 16  1  0  0  0  0
 23 24  2  0  0  0  0
 24  6  1  0  0  0  0
 25  2  1  0  0  0  0
M  END
>  <CHROM.1>
175.62305790,18.97360129,-89.99293243,-98.57024041,-50.57869698,-76.80549667
41.72099369,-45.69632650,7.17749157,0.05208085,-0.22708587,-1.75985702

>  <Name>
design_12

>  <RI>
0

>  <Rbt.Current_Directory>
/home/ziqiaoxu/icml18-jtnn/VAEdesign

>  <Rbt.Executable>
rbdock ($Id: //depot/dev/client3/rdock/2013.1/src/exe/rbdock.cxx#4 $)

>  <Rbt.Library>
libRbt.so (2013.1, Build901 2013/11/27)

>  <Rbt.Parameter_File>
/export/apps/rDock/src/rDock_2013.1_src//data/scripts/dock.prm

>  <Rbt.Receptor>
/home/ziqiaoxu/icml18-jtnn/VAEdesign/targets/RdRp-SARS-CoV-2/pocket_docking.prm

>  <SCORE>
-18.5257

>  <SCORE.INTER>
-19.0946

>  <SCORE.INTER.CONST>
1

>  <SCORE.INTER.POLAR>
-1.33984

>  <SCORE.INTER.REPUL>
0

>  <SCORE.INTER.ROT>
6

>  <SCORE.INTER.VDW>
-25.9392

>  <SCORE.INTER.norm>
-0.763784

>  <SCORE.INTRA>
0.568878

>  <SCORE.INTRA.DIHEDRAL>
1.27449

>  <SCORE.INTRA.DIHEDRAL.0>
5.57278

>  <SCORE.INTRA.POLAR>
0

>  <SCORE.INTRA.POLAR.0>
0

>  <SCORE.INTRA.REPUL>
0

>  <SCORE.INTRA.REPUL.0>
0

>  <SCORE.INTRA.VDW>
-0.0683659

>  <SCORE.INTRA.VDW.0>
-2.53092

>  <SCORE.INTRA.norm>
0.0227551

>  <SCORE.RESTR>
0

>  <SCORE.RESTR.CAVITY>
0

>  <SCORE.RESTR.norm>
0

>  <SCORE.SYSTEM>
0

>  <SCORE.SYSTEM.CONST>
0

>  <SCORE.SYSTEM.DIHEDRAL>
0

>  <SCORE.SYSTEM.norm>
0

>  <SCORE.heavy>
25

>  <SCORE.norm>
-0.741029

$$$$
design_14
 OpenBabel05252019093D

 25 27  0  0  0  0  0  0  0  0999 V2000
   42.6477  -39.0068    1.2503 C   0  0  0  0  0  0  0  0  0  0  0  0
   42.4423  -40.4502    1.5284 C   0  0  0  0  0  0  0  0  0  0  0  0
   42.0866  -40.9132    2.7970 C   0  0  0  0  0  0  0  0  0  0  0  0
   41.9077  -42.2336    3.0794 C   0  0  0  0  0  0  0  0  0  0  0  0
   42.0772  -43.1775    2.0889 C   0  0  0  0  0  0  0  0  0  0  0  0
   41.9559  -44.5912    2.3767 C   0  0  0  0  0  0  0  0  0  0  0  0
   42.1112  -45.4419    1.4408 O   0  0  0  0  0  0  0  0  0  0  0  0
   41.6577  -45.0049    3.7811 C   0  0  0  0  0  0  0  0  0  0  0  0
   42.9373  -45.3373    4.4815 C   0  0  0  0  0  0  0  0  0  0  0  0
   42.6966  -45.7344    5.9240 C   0  0  0  0  0  0  0  0  0  0  0  0
   43.6563  -45.2770    6.6860 O   0  0  0  0  0  0  0  0  0  0  0  0
   41.6407  -46.4564    6.2906 N   0  0  0  0  0  0  0  0  0  0  0  0
   40.5554  -47.1985    6.6675 C   0  0  0  0  0  0  0  0  0  0  0  0
   39.9493  -48.1394    5.8088 C   0  0  0  0  0  0  0  0  0  0  0  0
   38.9948  -49.0297    6.2124 C   0  0  0  0  0  0  0  0  0  0  0  0
   38.6218  -48.9854    7.5333 C   0  0  0  0  0  0  0  0  0  0  0  0
   39.1849  -48.0833    8.3956 C   0  0  0  0  0  0  0  0  0  0  0  0
   40.1423  -47.1793    8.0117 C   0  0  0  0  0  0  0  0  0  0  0  0
   40.6236  -46.1803    8.9158 N   0  0  0  0  0  0  0  0  0  0  0  0
   40.1003  -45.8490   10.0961 C   0  0  0  0  0  0  0  0  0  0  0  0
   40.8010  -44.7966   10.6491 C   0  0  0  0  0  0  0  0  0  0  0  0
   41.8014  -44.5018    9.7216 C   0  0  0  0  0  0  0  0  0  0  0  0
   41.6460  -45.3570    8.7111 N   0  0  0  0  0  0  0  0  0  0  0  0
   42.4246  -42.7488    0.8329 C   0  0  0  0  0  0  0  0  0  0  0  0
   42.6047  -41.4111    0.5566 C   0  0  0  0  0  0  0  0  0  0  0  0
  1  2  1  0  0  0  0
  2  3  2  0  0  0  0
  3  4  1  0  0  0  0
  4  5  2  0  0  0  0
  5  6  1  0  0  0  0
  5 24  1  0  0  0  0
  6  7  2  0  0  0  0
  6  8  1  0  0  0  0
  8  9  1  0  0  0  0
  9 10  1  0  0  0  0
 10 11  2  0  0  0  0
 10 12  1  0  0  0  0
 12 13  1  0  0  0  0
 13 14  2  0  0  0  0
 14 15  1  0  0  0  0
 15 16  2  0  0  0  0
 16 17  1  0  0  0  0
 17 18  2  0  0  0  0
 18 19  1  0  0  0  0
 18 13  1  0  0  0  0
 19 20  1  0  0  0  0
 20 21  2  0  0  0  0
 21 22  1  0  0  0  0
 22 23  2  0  0  0  0
 23 19  1  0  0  0  0
 24 25  2  0  0  0  0
 25  2  1  0  0  0  0
M  END
>  <CHROM.1>
179.66760715,-95.62861443,178.69990165,-142.83127923,-135.29353826,163.11839634
41.44691927,-44.91514317,5.34482221,-0.79614143,1.21761816,1.48234678

>  <Name>
design_14

>  <RI>
0

>  <Rbt.Current_Directory>
/home/ziqiaoxu/icml18-jtnn/VAEdesign

>  <Rbt.Executable>
rbdock ($Id: //depot/dev/client3/rdock/2013.1/src/exe/rbdock.cxx#4 $)

>  <Rbt.Library>
libRbt.so (2013.1, Build901 2013/11/27)

>  <Rbt.Parameter_File>
/export/apps/rDock/src/rDock_2013.1_src//data/scripts/dock.prm

>  <Rbt.Receptor>
/home/ziqiaoxu/icml18-jtnn/VAEdesign/targets/RdRp-SARS-CoV-2/pocket_docking.prm

>  <SCORE>
-21.0931

>  <SCORE.INTER>
-14.5213

>  <SCORE.INTER.CONST>
1

>  <SCORE.INTER.POLAR>
0

>  <SCORE.INTER.REPUL>
0

>  <SCORE.INTER.ROT>
6

>  <SCORE.INTER.VDW>
-25.9213

>  <SCORE.INTER.norm>
-0.580853

>  <SCORE.INTRA>
-6.57174

>  <SCORE.INTRA.DIHEDRAL>
-8.5906

>  <SCORE.INTRA.DIHEDRAL.0>
17.6455

>  <SCORE.INTRA.POLAR>
-0.310059

>  <SCORE.INTRA.POLAR.0>
0

>  <SCORE.INTRA.REPUL>
0

>  <SCORE.INTRA.REPUL.0>
0

>  <SCORE.INTRA.VDW>
-1.22224

>  <SCORE.INTRA.VDW.0>
2.87187

>  <SCORE.INTRA.norm>
-0.26287

>  <SCORE.RESTR>
0

>  <SCORE.RESTR.CAVITY>
0

>  <SCORE.RESTR.norm>
0

>  <SCORE.SYSTEM>
0

>  <SCORE.SYSTEM.CONST>
0

>  <SCORE.SYSTEM.DIHEDRAL>
0

>  <SCORE.SYSTEM.norm>
0

>  <SCORE.heavy>
25

>  <SCORE.norm>
-0.843723

$$$$
design_12
 OpenBabel05252019093D

 24 27  0  0  0  0  0  0  0  0999 V2000
   43.9858  -43.5041    5.7840 O   0  0  0  0  0  0  0  0  0  0  0  0
   44.6675  -44.4443    6.1997 C   0  0  0  0  0  0  0  0  0  0  0  0
   44.6729  -44.8637    7.6170 C   0  0  0  0  0  0  0  0  0  0  0  0
   43.3008  -45.0269    8.2040 C   0  0  0  0  0  0  0  0  0  0  0  0
   42.9040  -44.2929    9.2903 C   0  0  0  0  0  0  0  0  0  0  0  0
   41.3313  -44.9746    9.5828 S   0  0  0  0  0  0  0  0  0  0  0  0
   41.3045  -46.1171    8.3119 C   0  0  0  0  0  0  0  0  0  0  0  0
   40.2996  -47.0747    7.9461 N   0  0  0  0  0  0  0  0  0  0  0  0
   40.3581  -47.9075    6.9088 C   0  0  0  0  0  0  0  0  0  0  0  0
   39.1815  -48.6819    6.8765 C   0  0  0  0  0  0  0  0  0  0  0  0
   38.4018  -48.2728    7.9501 C   0  0  0  0  0  0  0  0  0  0  0  0
   39.1395  -47.2751    8.5713 C   0  0  0  0  0  0  0  0  0  0  0  0
   42.4774  -45.9233    7.7455 N   0  0  0  0  0  0  0  0  0  0  0  0
   45.5081  -45.2100    5.3183 N   0  0  0  0  0  0  0  0  0  0  0  0
   45.8232  -45.3043    3.9721 C   0  0  0  0  0  0  0  0  0  0  0  0
   44.5763  -45.4827    3.1512 C   0  0  0  0  0  0  0  0  0  0  0  0
   43.3348  -45.2673    3.3675 N   0  0  0  0  0  0  0  0  0  0  0  0
   42.6348  -45.4741    2.2545 O   0  0  0  0  0  0  0  0  0  0  0  0
   43.4527  -45.8485    1.2467 C   0  0  0  0  0  0  0  0  0  0  0  0
   43.3349  -46.1887   -0.0720 C   0  0  0  0  0  0  0  0  0  0  0  0
   44.4519  -46.5422   -0.8183 C   0  0  0  0  0  0  0  0  0  0  0  0
   45.6959  -46.5619   -0.2465 C   0  0  0  0  0  0  0  0  0  0  0  0
   45.8230  -46.2084    1.0610 C   0  0  0  0  0  0  0  0  0  0  0  0
   44.6932  -45.8557    1.7931 C   0  0  0  0  0  0  0  0  0  0  0  0
  1  2  2  0  0  0  0
  2  3  1  0  0  0  0
  2 14  1  0  0  0  0
  3  4  1  0  0  0  0
  4  5  2  0  0  0  0
  5  6  1  0  0  0  0
  6  7  1  0  0  0  0
  7  8  1  0  0  0  0
  7 13  2  0  0  0  0
  8  9  1  0  0  0  0
  9 10  2  0  0  0  0
 10 11  1  0  0  0  0
 11 12  2  0  0  0  0
 12  8  1  0  0  0  0
 13  4  1  0  0  0  0
 14 15  1  0  0  0  0
 15 16  1  0  0  0  0
 16 17  2  0  0  0  0
 17 18  1  0  0  0  0
 18 19  1  0  0  0  0
 19 20  2  0  0  0  0
 20 21  1  0  0  0  0
 21 22  2  0  0  0  0
 22 23  1  0  0  0  0
 23 24  2  0  0  0  0
 24 16  1  0  0  0  0
 24 19  1  0  0  0  0
M  END
>  <CHROM.1>
48.66052478,-120.63466773,178.24175689,-54.10030243,18.87471028,42.89609552
-45.85304263,5.34168482,-1.00120829,0.56325201,1.28681846

>  <Name>
design_12

>  <RI>
0

>  <Rbt.Current_Directory>
/home/ziqiaoxu/icml18-jtnn/VAEdesign

>  <Rbt.Executable>
rbdock ($Id: //depot/dev/client3/rdock/2013.1/src/exe/rbdock.cxx#4 $)

>  <Rbt.Library>
libRbt.so (2013.1, Build901 2013/11/27)

>  <Rbt.Parameter_File>
/export/apps/rDock/src/rDock_2013.1_src//data/scripts/dock.prm

>  <Rbt.Receptor>
/home/ziqiaoxu/icml18-jtnn/VAEdesign/targets/RdRp-SARS-CoV-2/pocket_docking.prm

>  <SCORE>
-20.5244

>  <SCORE.INTER>
-18.5622

>  <SCORE.INTER.CONST>
1

>  <SCORE.INTER.POLAR>
-0.894427

>  <SCORE.INTER.REPUL>
0

>  <SCORE.INTER.ROT>
5

>  <SCORE.INTER.VDW>
-25.9212

>  <SCORE.INTER.norm>
-0.773426

>  <SCORE.INTRA>
-1.96221

>  <SCORE.INTRA.DIHEDRAL>
-2.8931

>  <SCORE.INTRA.DIHEDRAL.0>
6.86709

>  <SCORE.INTRA.POLAR>
0

>  <SCORE.INTRA.POLAR.0>
0

>  <SCORE.INTRA.REPUL>
0

>  <SCORE.INTRA.REPUL.0>
0

>  <SCORE.INTRA.VDW>
-0.515657

>  <SCORE.INTRA.VDW.0>
-1.88459

>  <SCORE.INTRA.norm>
-0.0817586

>  <SCORE.RESTR>
0

>  <SCORE.RESTR.CAVITY>
0

>  <SCORE.RESTR.norm>
0

>  <SCORE.SYSTEM>
0

>  <SCORE.SYSTEM.CONST>
0

>  <SCORE.SYSTEM.DIHEDRAL>
0

>  <SCORE.SYSTEM.norm>
0

>  <SCORE.heavy>
24

>  <SCORE.norm>
-0.855185

$$$$
design_1
 OpenBabel05252019093D

 24 26  0  0  0  0  0  0  0  0999 V2000
   39.9506  -46.2935   10.4859 N   0  0  0  0  0  0  0  0  0  0  0  0
   39.8894  -46.3130    8.7468 S   0  0  0  0  0  0  0  0  0  0  0  0
   38.7960  -45.4029    8.2631 O   0  0  0  0  0  0  0  0  0  0  0  0
   39.6213  -47.7277    8.3344 O   0  0  0  0  0  0  0  0  0  0  0  0
   41.4686  -45.7605    8.1931 C   0  0  0  0  0  0  0  0  0  0  0  0
   41.9589  -46.1910    6.9502 C   0  0  0  0  0  0  0  0  0  0  0  0
   43.1853  -45.7660    6.5290 C   0  0  0  0  0  0  0  0  0  0  0  0
   44.0173  -44.9049    7.2657 C   0  0  0  0  0  0  0  0  0  0  0  0
   45.3422  -44.5547    6.7127 C   0  0  0  0  0  0  0  0  0  0  0  0
   45.7485  -45.3256    5.5628 N   0  0  0  0  0  0  0  0  0  0  0  0
   45.5473  -44.9708    4.2119 C   0  0  0  0  0  0  0  0  0  0  0  0
   44.9464  -43.9234    3.8946 O   0  0  0  0  0  0  0  0  0  0  0  0
   46.0364  -45.8269    3.1135 C   0  0  0  0  0  0  0  0  0  0  0  0
   47.1733  -46.5757    3.3627 C   0  0  0  0  0  0  0  0  0  0  0  0
   47.6708  -47.3401    2.3127 C   0  0  0  0  0  0  0  0  0  0  0  0
   47.0732  -47.3655    1.0862 C   0  0  0  0  0  0  0  0  0  0  0  0
   45.9438  -46.6275    0.8304 C   0  0  0  0  0  0  0  0  0  0  0  0
   45.3243  -46.6724   -0.3932 C   0  0  0  0  0  0  0  0  0  0  0  0
   44.1782  -45.9575   -0.6393 C   0  0  0  0  0  0  0  0  0  0  0  0
   43.6773  -45.1885    0.4113 C   0  0  0  0  0  0  0  0  0  0  0  0
   44.3048  -45.1474    1.6400 C   0  0  0  0  0  0  0  0  0  0  0  0
   45.4462  -45.8548    1.8901 C   0  0  0  0  0  0  0  0  0  0  0  0
   43.5166  -44.5008    8.4669 C   0  0  0  0  0  0  0  0  0  0  0  0
   42.2589  -44.9246    8.9218 C   0  0  0  0  0  0  0  0  0  0  0  0
  1  2  1  0  0  0  0
  2  3  2  0  0  0  0
  2  4  2  0  0  0  0
  2  5  1  0  0  0  0
  5  6  2  0  0  0  0
  6  7  1  0  0  0  0
  7  8  2  0  0  0  0
  8  9  1  0  0  0  0
  8 23  1  0  0  0  0
  9 10  1  0  0  0  0
 10 11  1  0  0  0  0
 11 12  2  0  0  0  0
 11 13  1  0  0  0  0
 13 14  2  0  0  0  0
 14 15  1  0  0  0  0
 15 16  2  0  0  0  0
 16 17  1  0  0  0  0
 17 18  2  0  0  0  0
 18 19  1  0  0  0  0
 19 20  2  0  0  0  0
 20 21  1  0  0  0  0
 21 22  2  0  0  0  0
 22 13  1  0  0  0  0
 22 17  1  0  0  0  0
 23 24  2  0  0  0  0
 24  5  1  0  0  0  0
M  END
>  <CHROM.1>
156.08794529,152.17137531,-10.35699714,93.15732001,-29.97476243,43.54764736
-45.82764495,5.18328376,-2.20479733,-0.18884368,-1.72450166

>  <Name>
design_1

>  <RI>
0

>  <Rbt.Current_Directory>
/home/ziqiaoxu/icml18-jtnn/VAEdesign

>  <Rbt.Executable>
rbdock ($Id: //depot/dev/client3/rdock/2013.1/src/exe/rbdock.cxx#4 $)

>  <Rbt.Library>
libRbt.so (2013.1, Build901 2013/11/27)

>  <Rbt.Parameter_File>
/export/apps/rDock/src/rDock_2013.1_src//data/scripts/dock.prm

>  <Rbt.Receptor>
/home/ziqiaoxu/icml18-jtnn/VAEdesign/targets/RdRp-SARS-CoV-2/pocket_docking.prm

>  <SCORE>
-27.3585

>  <SCORE.INTER>
-26.0944

>  <SCORE.INTER.CONST>
1

>  <SCORE.INTER.POLAR>
-3.10988

>  <SCORE.INTER.REPUL>
0

>  <SCORE.INTER.ROT>
5

>  <SCORE.INTER.VDW>
-25.9208

>  <SCORE.INTER.norm>
-1.08727

>  <SCORE.INTRA>
-1.26413

>  <SCORE.INTRA.DIHEDRAL>
-6.53142

>  <SCORE.INTRA.DIHEDRAL.0>
13.5403

>  <SCORE.INTRA.POLAR>
0

>  <SCORE.INTRA.POLAR.0>
0

>  <SCORE.INTRA.REPUL>
0

>  <SCORE.INTRA.REPUL.0>
0

>  <SCORE.INTRA.VDW>
2.00158

>  <SCORE.INTRA.VDW.0>
-2.87958

>  <SCORE.INTRA.norm>
-0.052672

>  <SCORE.RESTR>
0

>  <SCORE.RESTR.CAVITY>
0

>  <SCORE.RESTR.norm>
0

>  <SCORE.SYSTEM>
0

>  <SCORE.SYSTEM.CONST>
0

>  <SCORE.SYSTEM.DIHEDRAL>
0

>  <SCORE.SYSTEM.norm>
0

>  <SCORE.heavy>
24

>  <SCORE.norm>
-1.13994

$$$$
design_5
 OpenBabel05252019093D

 27 30  0  0  0  0  0  0  0  0999 V2000
   39.0104  -48.7176    6.2099 C   0  0  0  0  0  0  0  0  0  0  0  0
   39.1271  -47.8277    7.4188 C   0  0  0  0  0  0  0  0  0  0  0  0
   38.1870  -47.5457    8.3310 N   0  0  0  0  0  0  0  0  0  0  0  0
   38.7241  -46.7107    9.2356 N   0  0  0  0  0  0  0  0  0  0  0  0
   39.9910  -46.4474    8.9285 C   0  0  0  0  0  0  0  0  0  0  0  0
   40.9821  -45.6320    9.5996 C   0  0  0  0  0  0  0  0  0  0  0  0
   40.7339  -45.2063   10.9030 C   0  0  0  0  0  0  0  0  0  0  0  0
   41.6077  -44.4262   11.6068 C   0  0  0  0  0  0  0  0  0  0  0  0
   42.8101  -44.0318   11.0039 C   0  0  0  0  0  0  0  0  0  0  0  0
   43.0891  -44.4310    9.7195 C   0  0  0  0  0  0  0  0  0  0  0  0
   44.3607  -44.0062    9.0600 C   0  0  0  0  0  0  0  0  0  0  0  0
   44.7344  -44.8107    7.9389 N   0  0  0  0  0  0  0  0  0  0  0  0
   44.1474  -44.6001    6.6775 C   0  0  0  0  0  0  0  0  0  0  0  0
   43.2817  -43.6836    6.5396 O   0  0  0  0  0  0  0  0  0  0  0  0
   44.5021  -45.4050    5.5119 C   0  0  0  0  0  0  0  0  0  0  0  0
   45.8636  -45.1482    4.9292 C   0  0  0  0  0  0  0  0  0  0  0  0
   45.8690  -45.8920    3.6228 C   0  0  0  0  0  0  0  0  0  0  0  0
   46.7106  -46.9419    3.2942 C   0  0  0  0  0  0  0  0  0  0  0  0
   46.4760  -47.3323    2.0265 N   0  0  0  0  0  0  0  0  0  0  0  0
   45.5020  -46.5800    1.4920 C   0  0  0  0  0  0  0  0  0  0  0  0
   44.8965  -46.5648    0.2630 C   0  0  0  0  0  0  0  0  0  0  0  0
   43.8983  -45.6452    0.0201 C   0  0  0  0  0  0  0  0  0  0  0  0
   43.5019  -44.7449    0.9953 C   0  0  0  0  0  0  0  0  0  0  0  0
   44.1263  -44.7792    2.2195 C   0  0  0  0  0  0  0  0  0  0  0  0
   45.1236  -45.6834    2.4880 C   0  0  0  0  0  0  0  0  0  0  0  0
   42.1717  -45.2249    9.0392 C   0  0  0  0  0  0  0  0  0  0  0  0
   40.2344  -47.1513    7.7888 N   0  0  0  0  0  0  0  0  0  0  0  0
  1  2  1  0  0  0  0
  2  3  2  0  0  0  0
  3  4  1  0  0  0  0
  4  5  1  0  0  0  0
  5  6  1  0  0  0  0
  5 27  2  0  0  0  0
  6  7  2  0  0  0  0
  7  8  1  0  0  0  0
  8  9  2  0  0  0  0
  9 10  1  0  0  0  0
 10 11  1  0  0  0  0
 10 26  2  0  0  0  0
 11 12  1  0  0  0  0
 12 13  1  0  0  0  0
 13 14  2  0  0  0  0
 13 15  1  0  0  0  0
 15 16  1  0  0  0  0
 16 17  1  0  0  0  0
 17 18  2  0  0  0  0
 18 19  1  0  0  0  0
 19 20  1  0  0  0  0
 20 21  2  0  0  0  0
 21 22  1  0  0  0  0
 22 23  2  0  0  0  0
 23 24  1  0  0  0  0
 24 25  2  0  0  0  0
 25 17  1  0  0  0  0
 25 20  1  0  0  0  0
 26  6  1  0  0  0  0
 27  2  1  0  0  0  0
M  END
>  <CHROM.1>
13.32741528,160.66698121,80.83836861,-71.95550674,-169.57008735,-117.58979901
42.93433045,-45.75678035,6.19977467,2.17627460,0.45624144,1.25224707

>  <Name>
design_5

>  <RI>
0

>  <Rbt.Current_Directory>
/home/ziqiaoxu/icml18-jtnn/VAEdesign

>  <Rbt.Executable>
rbdock ($Id: //depot/dev/client3/rdock/2013.1/src/exe/rbdock.cxx#4 $)

>  <Rbt.Library>
libRbt.so (2013.1, Build901 2013/11/27)

>  <Rbt.Parameter_File>
/export/apps/rDock/src/rDock_2013.1_src//data/scripts/dock.prm

>  <Rbt.Receptor>
/home/ziqiaoxu/icml18-jtnn/VAEdesign/targets/RdRp-SARS-CoV-2/pocket_docking.prm

>  <SCORE>
-21.7017

>  <SCORE.INTER>
-20.3747

>  <SCORE.INTER.CONST>
1

>  <SCORE.INTER.POLAR>
-1.72243

>  <SCORE.INTER.REPUL>
0

>  <SCORE.INTER.ROT>
6

>  <SCORE.INTER.VDW>
-25.9184

>  <SCORE.INTER.norm>
-0.754618

>  <SCORE.INTRA>
-1.32702

>  <SCORE.INTRA.DIHEDRAL>
0.428664

>  <SCORE.INTRA.DIHEDRAL.0>
3.96459

>  <SCORE.INTRA.POLAR>
0

>  <SCORE.INTRA.POLAR.0>
0

>  <SCORE.INTRA.REPUL>
0

>  <SCORE.INTRA.REPUL.0>
0

>  <SCORE.INTRA.VDW>
-1.54136

>  <SCORE.INTRA.VDW.0>
-0.527326

>  <SCORE.INTRA.norm>
-0.049149

>  <SCORE.RESTR>
0

>  <SCORE.RESTR.CAVITY>
0

>  <SCORE.RESTR.norm>
0

>  <SCORE.SYSTEM>
0

>  <SCORE.SYSTEM.CONST>
0

>  <SCORE.SYSTEM.DIHEDRAL>
0

>  <SCORE.SYSTEM.norm>
0

>  <SCORE.heavy>
27

>  <SCORE.norm>
-0.803767

$$$$
design_11
 OpenBabel05252019093D

 22 23  0  0  0  0  0  0  0  0999 V2000
   47.5590  -43.8681    6.3013 C   0  0  0  0  0  0  0  0  0  0  0  0
   46.2275  -43.8437    7.0133 C   0  0  0  0  0  0  0  0  0  0  0  0
   45.9461  -42.7720    7.5624 O   0  0  0  0  0  0  0  0  0  0  0  0
   45.4167  -44.9662    7.0218 N   0  0  0  0  0  0  0  0  0  0  0  0
   44.1613  -45.0947    7.6325 C   0  0  0  0  0  0  0  0  0  0  0  0
   43.7177  -44.4149    8.7393 C   0  0  0  0  0  0  0  0  0  0  0  0
   42.4456  -44.6420    9.2620 C   0  0  0  0  0  0  0  0  0  0  0  0
   41.5595  -45.5416    8.7223 C   0  0  0  0  0  0  0  0  0  0  0  0
   39.9730  -45.7997    9.4049 S   0  0  0  0  0  0  0  0  0  0  0  0
   39.2493  -44.4661    9.2640 O   0  0  0  0  0  0  0  0  0  0  0  0
   40.1096  -46.1361   10.8647 O   0  0  0  0  0  0  0  0  0  0  0  0
   39.1571  -47.0183    8.5340 N   0  0  0  0  0  0  0  0  0  0  0  0
   38.3477  -46.7088    7.4114 C   0  0  0  0  0  0  0  0  0  0  0  0
   37.6991  -45.5098    7.2146 C   0  0  0  0  0  0  0  0  0  0  0  0
   36.8934  -45.2622    6.1046 C   0  0  0  0  0  0  0  0  0  0  0  0
   36.0871  -43.7218    5.8928 Cl  0  0  0  0  0  0  0  0  0  0  0  0
   36.7640  -46.2833    5.1887 C   0  0  0  0  0  0  0  0  0  0  0  0
   37.4105  -47.4843    5.3823 C   0  0  0  0  0  0  0  0  0  0  0  0
   38.2080  -47.7349    6.4763 C   0  0  0  0  0  0  0  0  0  0  0  0
   38.9024  -49.0377    6.6753 C   0  0  0  0  0  0  0  0  0  0  0  0
   41.9951  -46.2297    7.6100 C   0  0  0  0  0  0  0  0  0  0  0  0
   43.2422  -46.0152    7.0880 C   0  0  0  0  0  0  0  0  0  0  0  0
  1  2  1  0  0  0  0
  2  3  2  0  0  0  0
  2  4  1  0  0  0  0
  4  5  1  0  0  0  0
  5  6  2  0  0  0  0
  6  7  1  0  0  0  0
  7  8  2  0  0  0  0
  8  9  1  0  0  0  0
  8 21  1  0  0  0  0
  9 10  2  0  0  0  0
  9 11  2  0  0  0  0
  9 12  1  0  0  0  0
 12 13  1  0  0  0  0
 13 14  2  0  0  0  0
 14 15  1  0  0  0  0
 15 16  1  0  0  0  0
 15 17  2  0  0  0  0
 17 18  1  0  0  0  0
 18 19  2  0  0  0  0
 19 20  1  0  0  0  0
 19 13  1  0  0  0  0
 21 22  2  0  0  0  0
 22  5  1  0  0  0  0
M  END
>  <CHROM.1>
-28.30771221,62.99452529,-89.95039724,-27.34271687,40.64659870,-45.45032652
7.55591483,0.00078973,-0.21531852,-1.04146887

>  <Name>
design_11

>  <RI>
0

>  <Rbt.Current_Directory>
/home/ziqiaoxu/icml18-jtnn/VAEdesign

>  <Rbt.Executable>
rbdock ($Id: //depot/dev/client3/rdock/2013.1/src/exe/rbdock.cxx#4 $)

>  <Rbt.Library>
libRbt.so (2013.1, Build901 2013/11/27)

>  <Rbt.Parameter_File>
/export/apps/rDock/src/rDock_2013.1_src//data/scripts/dock.prm

>  <Rbt.Receptor>
/home/ziqiaoxu/icml18-jtnn/VAEdesign/targets/RdRp-SARS-CoV-2/pocket_docking.prm

>  <SCORE>
-20.1735

>  <SCORE.INTER>
-18.9978

>  <SCORE.INTER.CONST>
1

>  <SCORE.INTER.POLAR>
-0.760032

>  <SCORE.INTER.REPUL>
0.0196488

>  <SCORE.INTER.ROT>
4

>  <SCORE.INTER.VDW>
-25.912

>  <SCORE.INTER.norm>
-0.863538

>  <SCORE.INTRA>
-1.17564

>  <SCORE.INTRA.DIHEDRAL>
-5.963

>  <SCORE.INTRA.DIHEDRAL.0>
13.7507

>  <SCORE.INTRA.POLAR>
0

>  <SCORE.INTRA.POLAR.0>
0

>  <SCORE.INTRA.REPUL>
0

>  <SCORE.INTRA.REPUL.0>
0

>  <SCORE.INTRA.VDW>
1.80586

>  <SCORE.INTRA.VDW.0>
-3.04299

>  <SCORE.INTRA.norm>
-0.0534382

>  <SCORE.RESTR>
0

>  <SCORE.RESTR.CAVITY>
0

>  <SCORE.RESTR.norm>
0

>  <SCORE.SYSTEM>
0

>  <SCORE.SYSTEM.CONST>
0

>  <SCORE.SYSTEM.DIHEDRAL>
0

>  <SCORE.SYSTEM.norm>
0

>  <SCORE.heavy>
22

>  <SCORE.norm>
-0.916976

$$$$
design_9
 OpenBabel05252019093D

 23 25  0  0  0  0  0  0  0  0999 V2000
   46.6963  -46.3452    4.1082 O   0  0  0  0  0  0  0  0  0  0  0  0
   45.5351  -45.8634    4.2416 C   0  0  0  0  0  0  0  0  0  0  0  0
   44.9864  -45.5189    5.4379 N   0  0  0  0  0  0  0  0  0  0  0  0
   44.4293  -45.1690    6.6529 C   0  0  0  0  0  0  0  0  0  0  0  0
   42.9965  -45.5113    6.9216 C   0  0  0  0  0  0  0  0  0  0  0  0
   42.4217  -45.3272    8.2474 C   0  0  0  0  0  0  0  0  0  0  0  0
   41.1914  -45.9449    8.5797 N   0  0  0  0  0  0  0  0  0  0  0  0
   40.4705  -45.6259    9.6963 C   0  0  0  0  0  0  0  0  0  0  0  0
   39.3203  -46.3539    9.7727 C   0  0  0  0  0  0  0  0  0  0  0  0
   39.3120  -47.1690    8.6563 C   0  0  0  0  0  0  0  0  0  0  0  0
   38.3999  -48.1084    8.2495 C   0  0  0  0  0  0  0  0  0  0  0  0
   38.6117  -48.8348    7.0876 C   0  0  0  0  0  0  0  0  0  0  0  0
   39.7806  -48.5423    6.3968 C   0  0  0  0  0  0  0  0  0  0  0  0
   40.6337  -47.6187    6.8361 N   0  0  0  0  0  0  0  0  0  0  0  0
   40.4913  -46.8785    7.9496 C   0  0  0  0  0  0  0  0  0  0  0  0
   44.7781  -45.6939    3.0564 N   0  0  0  0  0  0  0  0  0  0  0  0
   45.1345  -46.0587    1.7725 C   0  0  0  0  0  0  0  0  0  0  0  0
   46.3463  -46.4947    1.3494 C   0  0  0  0  0  0  0  0  0  0  0  0
   46.5627  -46.9050    0.0159 C   0  0  0  0  0  0  0  0  0  0  0  0
   45.5579  -46.8799   -0.9019 C   0  0  0  0  0  0  0  0  0  0  0  0
   44.2991  -46.4364   -0.5037 C   0  0  0  0  0  0  0  0  0  0  0  0
   44.1079  -46.0403    0.7997 C   0  0  0  0  0  0  0  0  0  0  0  0
   42.8836  -45.6038    1.1903 F   0  0  0  0  0  0  0  0  0  0  0  0
  1  2  2  0  0  0  0
  2  3  1  0  0  0  0
  2 16  1  0  0  0  0
  3  4  1  0  0  0  0
  4  5  1  0  0  0  0
  5  6  1  0  0  0  0
  6  7  1  0  0  0  0
  7  8  1  0  0  0  0
  8  9  2  0  0  0  0
  9 10  1  0  0  0  0
 10 11  2  0  0  0  0
 11 12  1  0  0  0  0
 12 13  2  0  0  0  0
 13 14  1  0  0  0  0
 14 15  2  0  0  0  0
 15  7  1  0  0  0  0
 15 10  1  0  0  0  0
 16 17  1  0  0  0  0
 17 18  2  0  0  0  0
 18 19  1  0  0  0  0
 19 20  2  0  0  0  0
 20 21  1  0  0  0  0
 21 22  2  0  0  0  0
 22 23  1  0  0  0  0
 22 17  1  0  0  0  0
M  END
>  <CHROM.1>
-179.68325758,171.57583879,-164.54676061,-167.42199280,-9.30920977,42.87971183
-46.43748092,4.98135037,-0.87538194,0.40665718,1.34177797

>  <Name>
design_9

>  <RI>
0

>  <Rbt.Current_Directory>
/home/ziqiaoxu/icml18-jtnn/VAEdesign

>  <Rbt.Executable>
rbdock ($Id: //depot/dev/client3/rdock/2013.1/src/exe/rbdock.cxx#4 $)

>  <Rbt.Library>
libRbt.so (2013.1, Build901 2013/11/27)

>  <Rbt.Parameter_File>
/export/apps/rDock/src/rDock_2013.1_src//data/scripts/dock.prm

>  <Rbt.Receptor>
/home/ziqiaoxu/icml18-jtnn/VAEdesign/targets/RdRp-SARS-CoV-2/pocket_docking.prm

>  <SCORE>
-16.9699

>  <SCORE.INTER>
-16.9642

>  <SCORE.INTER.CONST>
1

>  <SCORE.INTER.POLAR>
-0.427652

>  <SCORE.INTER.REPUL>
0

>  <SCORE.INTER.ROT>
5

>  <SCORE.INTER.VDW>
-25.9102

>  <SCORE.INTER.norm>
-0.737573

>  <SCORE.INTRA>
-0.00573891

>  <SCORE.INTRA.DIHEDRAL>
0.816583

>  <SCORE.INTRA.DIHEDRAL.0>
3.97499

>  <SCORE.INTRA.POLAR>
0

>  <SCORE.INTRA.POLAR.0>
0

>  <SCORE.INTRA.REPUL>
0

>  <SCORE.INTRA.REPUL.0>
0

>  <SCORE.INTRA.VDW>
-0.41403

>  <SCORE.INTRA.VDW.0>
-0.283802

>  <SCORE.INTRA.norm>
-0.000249518

>  <SCORE.RESTR>
0

>  <SCORE.RESTR.CAVITY>
0

>  <SCORE.RESTR.norm>
0

>  <SCORE.SYSTEM>
0

>  <SCORE.SYSTEM.CONST>
0

>  <SCORE.SYSTEM.DIHEDRAL>
0

>  <SCORE.SYSTEM.norm>
0

>  <SCORE.heavy>
23

>  <SCORE.norm>
-0.737823

$$$$
design_4
 OpenBabel05252019093D

 26 28  0  0  0  0  0  0  0  0999 V2000
   40.0727  -46.4088   10.2825 N   0  0  0  0  0  0  0  0  0  0  0  0
   40.8288  -46.0140    9.1551 C   0  0  0  0  0  0  0  0  0  0  0  0
   41.7267  -45.1507    9.2964 O   0  0  0  0  0  0  0  0  0  0  0  0
   40.5570  -46.6096    7.8578 C   0  0  0  0  0  0  0  0  0  0  0  0
   39.5478  -47.5414    7.7581 C   0  0  0  0  0  0  0  0  0  0  0  0
   39.2594  -48.1238    6.5643 C   0  0  0  0  0  0  0  0  0  0  0  0
   40.0055  -47.7604    5.4384 C   0  0  0  0  0  0  0  0  0  0  0  0
   41.0140  -46.8456    5.4782 C   0  0  0  0  0  0  0  0  0  0  0  0
   41.7681  -46.4771    4.3443 N   0  0  0  0  0  0  0  0  0  0  0  0
   42.8925  -45.6582    4.2750 C   0  0  0  0  0  0  0  0  0  0  0  0
   43.4776  -45.0708    5.2091 O   0  0  0  0  0  0  0  0  0  0  0  0
   43.5175  -45.4230    2.9133 C   0  0  0  0  0  0  0  0  0  0  0  0
   42.5623  -44.7227    1.9976 C   0  0  0  0  0  0  0  0  0  0  0  0
   43.1148  -43.4969    1.3411 C   0  0  0  0  0  0  0  0  0  0  0  0
   44.3070  -43.7519    0.5173 C   0  0  0  0  0  0  0  0  0  0  0  0
   44.9625  -44.9010    0.2934 N   0  0  0  0  0  0  0  0  0  0  0  0
   45.9697  -44.6543   -0.5078 N   0  0  0  0  0  0  0  0  0  0  0  0
   45.9539  -43.3357   -0.7956 C   0  0  0  0  0  0  0  0  0  0  0  0
   44.9295  -42.7481   -0.1713 N   0  0  0  0  0  0  0  0  0  0  0  0
   44.5748  -41.3730   -0.2212 C   0  0  0  0  0  0  0  0  0  0  0  0
   45.1493  -40.5063   -1.1249 C   0  0  0  0  0  0  0  0  0  0  0  0
   44.8382  -39.1758   -1.2084 C   0  0  0  0  0  0  0  0  0  0  0  0
   43.8949  -38.6802   -0.3350 C   0  0  0  0  0  0  0  0  0  0  0  0
   43.3051  -39.5447    0.5846 C   0  0  0  0  0  0  0  0  0  0  0  0
   43.6266  -40.8646    0.6533 C   0  0  0  0  0  0  0  0  0  0  0  0
   41.2678  -46.2787    6.7288 C   0  0  0  0  0  0  0  0  0  0  0  0
  1  2  1  0  0  0  0
  2  3  2  0  0  0  0
  2  4  1  0  0  0  0
  4  5  2  0  0  0  0
  5  6  1  0  0  0  0
  6  7  2  0  0  0  0
  7  8  1  0  0  0  0
  8  9  1  0  0  0  0
  8 26  2  0  0  0  0
  9 10  1  0  0  0  0
 10 11  2  0  0  0  0
 10 12  1  0  0  0  0
 12 13  1  0  0  0  0
 13 14  1  0  0  0  0
 14 15  1  0  0  0  0
 15 16  2  0  0  0  0
 16 17  1  0  0  0  0
 17 18  2  0  0  0  0
 18 19  1  0  0  0  0
 19 20  1  0  0  0  0
 19 15  1  0  0  0  0
 20 21  2  0  0  0  0
 21 22  1  0  0  0  0
 22 23  2  0  0  0  0
 23 24  1  0  0  0  0
 24 25  2  0  0  0  0
 25 20  1  0  0  0  0
 26  4  1  0  0  0  0
M  END
>  <CHROM.1>
0.77892617,-173.43547314,62.73658571,128.10997353,59.44580753,-1.01533895
-169.01891888,42.80753900,-44.30849544,3.39215616,2.65210605,-1.11446249
-3.10611147

>  <Name>
design_4

>  <RI>
0

>  <Rbt.Current_Directory>
/home/ziqiaoxu/icml18-jtnn/VAEdesign

>  <Rbt.Executable>
rbdock ($Id: //depot/dev/client3/rdock/2013.1/src/exe/rbdock.cxx#4 $)

>  <Rbt.Library>
libRbt.so (2013.1, Build901 2013/11/27)

>  <Rbt.Parameter_File>
/export/apps/rDock/src/rDock_2013.1_src//data/scripts/dock.prm

>  <Rbt.Receptor>
/home/ziqiaoxu/icml18-jtnn/VAEdesign/targets/RdRp-SARS-CoV-2/pocket_docking.prm

>  <SCORE>
-25.9562

>  <SCORE.INTER>
-23.8678

>  <SCORE.INTER.CONST>
1

>  <SCORE.INTER.POLAR>
-3.0891

>  <SCORE.INTER.REPUL>
0.0289383

>  <SCORE.INTER.ROT>
7

>  <SCORE.INTER.VDW>
-25.9095

>  <SCORE.INTER.norm>
-0.917991

>  <SCORE.INTRA>
-2.08847

>  <SCORE.INTRA.DIHEDRAL>
-5.9073

>  <SCORE.INTRA.DIHEDRAL.0>
14.1284

>  <SCORE.INTRA.POLAR>
0

>  <SCORE.INTRA.POLAR.0>
0

>  <SCORE.INTRA.REPUL>
0

>  <SCORE.INTRA.REPUL.0>
0

>  <SCORE.INTRA.VDW>
0.865183

>  <SCORE.INTRA.VDW.0>
0.363324

>  <SCORE.INTRA.norm>
-0.0803257

>  <SCORE.RESTR>
0

>  <SCORE.RESTR.CAVITY>
0

>  <SCORE.RESTR.norm>
0

>  <SCORE.SYSTEM>
0

>  <SCORE.SYSTEM.CONST>
0

>  <SCORE.SYSTEM.DIHEDRAL>
0

>  <SCORE.SYSTEM.norm>
0

>  <SCORE.heavy>
26

>  <SCORE.norm>
-0.998316

$$$$
design_11
 OpenBabel05252019093D

 22 23  0  0  0  0  0  0  0  0999 V2000
   40.9282  -38.4934    1.8326 C   0  0  0  0  0  0  0  0  0  0  0  0
   40.0956  -37.8731    2.8876 C   0  0  0  0  0  0  0  0  0  0  0  0
   39.2869  -36.9731    2.5744 O   0  0  0  0  0  0  0  0  0  0  0  0
   40.1999  -38.2859    4.2634 C   0  0  0  0  0  0  0  0  0  0  0  0
   41.0608  -39.2946    4.6429 C   0  0  0  0  0  0  0  0  0  0  0  0
   41.1761  -39.7039    5.9466 C   0  0  0  0  0  0  0  0  0  0  0  0
   40.4178  -39.1094    6.9558 C   0  0  0  0  0  0  0  0  0  0  0  0
   40.5892  -39.5876    8.3718 C   0  0  0  0  0  0  0  0  0  0  0  0
   39.8471  -40.8490    8.6271 C   0  0  0  0  0  0  0  0  0  0  0  0
   40.6229  -42.0077    8.9177 N   0  0  0  0  0  0  0  0  0  0  0  0
   40.2424  -42.9959    9.8782 C   0  0  0  0  0  0  0  0  0  0  0  0
   39.1559  -42.8633   10.5276 O   0  0  0  0  0  0  0  0  0  0  0  0
   41.0667  -44.1856   10.1575 C   0  0  0  0  0  0  0  0  0  0  0  0
   40.6538  -45.3227    9.3127 C   0  0  0  0  0  0  0  0  0  0  0  0
   39.5380  -46.0854    9.5668 C   0  0  0  0  0  0  0  0  0  0  0  0
   39.2340  -47.1338    8.7127 C   0  0  0  0  0  0  0  0  0  0  0  0
   40.0118  -47.4401    7.6155 C   0  0  0  0  0  0  0  0  0  0  0  0
   39.5673  -48.7830    6.5756 Cl  0  0  0  0  0  0  0  0  0  0  0  0
   41.1346  -46.6772    7.3549 C   0  0  0  0  0  0  0  0  0  0  0  0
   41.4299  -45.6416    8.2032 C   0  0  0  0  0  0  0  0  0  0  0  0
   39.5569  -38.1044    6.5956 C   0  0  0  0  0  0  0  0  0  0  0  0
   39.4609  -37.7129    5.2771 C   0  0  0  0  0  0  0  0  0  0  0  0
  1  2  1  0  0  0  0
  2  3  2  0  0  0  0
  2  4  1  0  0  0  0
  4  5  2  0  0  0  0
  5  6  1  0  0  0  0
  6  7  2  0  0  0  0
  7  8  1  0  0  0  0
  7 21  1  0  0  0  0
  8  9  1  0  0  0  0
  9 10  1  0  0  0  0
 10 11  1  0  0  0  0
 11 12  2  0  0  0  0
 11 13  1  0  0  0  0
 13 14  1  0  0  0  0
 14 15  2  0  0  0  0
 15 16  1  0  0  0  0
 16 17  2  0  0  0  0
 17 18  1  0  0  0  0
 17 19  1  0  0  0  0
 19 20  2  0  0  0  0
 20 14  1  0  0  0  0
 21 22  2  0  0  0  0
 22  4  1  0  0  0  0
M  END
>  <CHROM.1>
-1.35738172,-79.55645582,114.50048011,141.91625473,-92.24974276,-77.65525881
40.18450041,-42.46582716,6.99490499,0.95033000,-1.54743742,-1.03681829

>  <Name>
design_11

>  <RI>
0

>  <Rbt.Current_Directory>
/home/ziqiaoxu/icml18-jtnn/VAEdesign

>  <Rbt.Executable>
rbdock ($Id: //depot/dev/client3/rdock/2013.1/src/exe/rbdock.cxx#4 $)

>  <Rbt.Library>
libRbt.so (2013.1, Build901 2013/11/27)

>  <Rbt.Parameter_File>
/export/apps/rDock/src/rDock_2013.1_src//data/scripts/dock.prm

>  <Rbt.Receptor>
/home/ziqiaoxu/icml18-jtnn/VAEdesign/targets/RdRp-SARS-CoV-2/pocket_docking.prm

>  <SCORE>
-13.6145

>  <SCORE.INTER>
-16.0407

>  <SCORE.INTER.CONST>
1

>  <SCORE.INTER.POLAR>
-0.53981

>  <SCORE.INTER.REPUL>
0.0594611

>  <SCORE.INTER.ROT>
6

>  <SCORE.INTER.VDW>
-25.9027

>  <SCORE.INTER.norm>
-0.729124

>  <SCORE.INTRA>
2.42619

>  <SCORE.INTRA.DIHEDRAL>
5.4116

>  <SCORE.INTRA.DIHEDRAL.0>
3.96968

>  <SCORE.INTRA.POLAR>
0

>  <SCORE.INTRA.POLAR.0>
0

>  <SCORE.INTRA.REPUL>
0

>  <SCORE.INTRA.REPUL.0>
0

>  <SCORE.INTRA.VDW>
-0.279612

>  <SCORE.INTRA.VDW.0>
-0.0424901

>  <SCORE.INTRA.norm>
0.110281

>  <SCORE.RESTR>
0

>  <SCORE.RESTR.CAVITY>
0

>  <SCORE.RESTR.norm>
0

>  <SCORE.SYSTEM>
0

>  <SCORE.SYSTEM.CONST>
0

>  <SCORE.SYSTEM.DIHEDRAL>
0

>  <SCORE.SYSTEM.norm>
0

>  <SCORE.heavy>
22

>  <SCORE.norm>
-0.618843

$$$$
design_8
 OpenBabel05252019093D

 24 26  0  0  0  0  0  0  0  0999 V2000
   39.7555  -46.6263   10.1063 N   0  0  0  0  0  0  0  0  0  0  0  0
   39.9660  -46.7717    8.6985 C   0  0  0  0  0  0  0  0  0  0  0  0
   38.9865  -47.3375    7.9167 C   0  0  0  0  0  0  0  0  0  0  0  0
   39.2138  -47.4681    6.5562 C   0  0  0  0  0  0  0  0  0  0  0  0
   40.4065  -47.0344    6.0056 C   0  0  0  0  0  0  0  0  0  0  0  0
   41.3948  -46.4668    6.7745 C   0  0  0  0  0  0  0  0  0  0  0  0
   42.6314  -46.0329    6.1279 C   0  0  0  0  0  0  0  0  0  0  0  0
   42.6722  -46.1403    4.8824 O   0  0  0  0  0  0  0  0  0  0  0  0
   43.7313  -45.5196    6.8331 N   0  0  0  0  0  0  0  0  0  0  0  0
   44.9735  -45.0777    6.3304 C   0  0  0  0  0  0  0  0  0  0  0  0
   45.7317  -44.1438    6.9687 C   0  0  0  0  0  0  0  0  0  0  0  0
   46.9711  -43.7600    6.4274 C   0  0  0  0  0  0  0  0  0  0  0  0
   47.3881  -44.3383    5.2630 C   0  0  0  0  0  0  0  0  0  0  0  0
   46.6566  -45.2857    4.5814 C   0  0  0  0  0  0  0  0  0  0  0  0
   47.1480  -45.8174    3.4167 O   0  0  0  0  0  0  0  0  0  0  0  0
   46.6114  -46.8826    2.7052 C   0  0  0  0  0  0  0  0  0  0  0  0
   45.5537  -46.3693    1.8116 C   0  0  0  0  0  0  0  0  0  0  0  0
   44.3551  -45.9358    2.3165 C   0  0  0  0  0  0  0  0  0  0  0  0
   43.3477  -45.4477    1.4759 C   0  0  0  0  0  0  0  0  0  0  0  0
   43.6012  -45.4176    0.1241 C   0  0  0  0  0  0  0  0  0  0  0  0
   44.7955  -45.8452   -0.4229 C   0  0  0  0  0  0  0  0  0  0  0  0
   45.7722  -46.3245    0.4546 C   0  0  0  0  0  0  0  0  0  0  0  0
   45.4514  -45.6464    5.1260 C   0  0  0  0  0  0  0  0  0  0  0  0
   41.1525  -46.3454    8.1208 C   0  0  0  0  0  0  0  0  0  0  0  0
  1  2  1  0  0  0  0
  2  3  2  0  0  0  0
  3  4  1  0  0  0  0
  4  5  2  0  0  0  0
  5  6  1  0  0  0  0
  6  7  1  0  0  0  0
  6 24  2  0  0  0  0
  7  8  2  0  0  0  0
  7  9  1  0  0  0  0
  9 10  1  0  0  0  0
 10 11  2  0  0  0  0
 11 12  1  0  0  0  0
 12 13  2  0  0  0  0
 13 14  1  0  0  0  0
 14 15  1  0  0  0  0
 14 23  2  0  0  0  0
 15 16  1  0  0  0  0
 16 17  1  0  0  0  0
 17 18  2  0  0  0  0
 18 19  1  0  0  0  0
 19 20  2  0  0  0  0
 20 21  1  0  0  0  0
 21 22  2  0  0  0  0
 22 17  1  0  0  0  0
 23 10  1  0  0  0  0
 24  2  1  0  0  0  0
M  END
>  <CHROM.1>
4.09350779,152.99439063,171.88286666,84.91418169,-71.52607928,43.67534473
-45.92439132,4.97203840,-2.35967630,-0.31920344,-1.70530792

>  <Name>
design_8

>  <RI>
0

>  <Rbt.Current_Directory>
/home/ziqiaoxu/icml18-jtnn/VAEdesign

>  <Rbt.Executable>
rbdock ($Id: //depot/dev/client3/rdock/2013.1/src/exe/rbdock.cxx#4 $)

>  <Rbt.Library>
libRbt.so (2013.1, Build901 2013/11/27)

>  <Rbt.Parameter_File>
/export/apps/rDock/src/rDock_2013.1_src//data/scripts/dock.prm

>  <Rbt.Receptor>
/home/ziqiaoxu/icml18-jtnn/VAEdesign/targets/RdRp-SARS-CoV-2/pocket_docking.prm

>  <SCORE>
-20.0487

>  <SCORE.INTER>
-21.6569

>  <SCORE.INTER.CONST>
1

>  <SCORE.INTER.POLAR>
-1.81039

>  <SCORE.INTER.REPUL>
0

>  <SCORE.INTER.ROT>
5

>  <SCORE.INTER.VDW>
-25.9016

>  <SCORE.INTER.norm>
-0.902371

>  <SCORE.INTRA>
1.60825

>  <SCORE.INTRA.DIHEDRAL>
4.23008

>  <SCORE.INTRA.DIHEDRAL.0>
2.03065

>  <SCORE.INTRA.POLAR>
0

>  <SCORE.INTRA.POLAR.0>
0

>  <SCORE.INTRA.REPUL>
0

>  <SCORE.INTRA.REPUL.0>
0

>  <SCORE.INTRA.VDW>
-0.506792

>  <SCORE.INTRA.VDW.0>
-0.04313

>  <SCORE.INTRA.norm>
0.0670103

>  <SCORE.RESTR>
0

>  <SCORE.RESTR.CAVITY>
0

>  <SCORE.RESTR.norm>
0

>  <SCORE.SYSTEM>
0

>  <SCORE.SYSTEM.CONST>
0

>  <SCORE.SYSTEM.DIHEDRAL>
0

>  <SCORE.SYSTEM.norm>
0

>  <SCORE.heavy>
24

>  <SCORE.norm>
-0.835361

$$$$
design_0
 OpenBabel05252019093D

 24 26  0  0  0  0  0  0  0  0999 V2000
   43.3623  -45.8831   -0.3484 N   0  0  0  0  0  0  0  0  0  0  0  0
   44.6348  -46.3546    0.0639 C   0  0  0  0  0  0  0  0  0  0  0  0
   45.2686  -47.1048   -0.7238 O   0  0  0  0  0  0  0  0  0  0  0  0
   45.1326  -45.9503    1.3621 C   0  0  0  0  0  0  0  0  0  0  0  0
   44.4559  -45.0208    2.1064 C   0  0  0  0  0  0  0  0  0  0  0  0
   44.9378  -44.6396    3.3681 C   0  0  0  0  0  0  0  0  0  0  0  0
   46.0875  -45.1975    3.8581 C   0  0  0  0  0  0  0  0  0  0  0  0
   46.6110  -44.8273    5.1817 C   0  0  0  0  0  0  0  0  0  0  0  0
   45.6725  -45.2954    6.1855 N   0  0  0  0  0  0  0  0  0  0  0  0
   44.7890  -44.3586    6.7611 C   0  0  0  0  0  0  0  0  0  0  0  0
   44.7890  -43.1418    6.4343 O   0  0  0  0  0  0  0  0  0  0  0  0
   43.8273  -44.8089    7.7852 C   0  0  0  0  0  0  0  0  0  0  0  0
   42.6686  -46.0249    7.1713 S   0  0  0  0  0  0  0  0  0  0  0  0
   41.2174  -46.1876    8.2222 C   0  0  0  0  0  0  0  0  0  0  0  0
   41.0286  -45.5240    9.3908 N   0  0  0  0  0  0  0  0  0  0  0  0
   39.8612  -45.8761    9.8745 N   0  0  0  0  0  0  0  0  0  0  0  0
   39.3038  -46.7478    9.0414 C   0  0  0  0  0  0  0  0  0  0  0  0
   38.1665  -47.3010    9.1957 O   0  0  0  0  0  0  0  0  0  0  0  0
   40.1322  -46.9536    8.0082 N   0  0  0  0  0  0  0  0  0  0  0  0
   39.9535  -47.8020    6.8645 C   0  0  0  0  0  0  0  0  0  0  0  0
   39.6144  -47.0367    5.5838 C   0  0  0  0  0  0  0  0  0  0  0  0
   38.6551  -48.0044    6.1960 C   0  0  0  0  0  0  0  0  0  0  0  0
   46.7549  -46.1273    3.0996 C   0  0  0  0  0  0  0  0  0  0  0  0
   46.2827  -46.5116    1.8446 C   0  0  0  0  0  0  0  0  0  0  0  0
  1  2  1  0  0  0  0
  2  3  2  0  0  0  0
  2  4  1  0  0  0  0
  4  5  2  0  0  0  0
  5  6  1  0  0  0  0
  6  7  2  0  0  0  0
  7  8  1  0  0  0  0
  7 23  1  0  0  0  0
  8  9  1  0  0  0  0
  9 10  1  0  0  0  0
 10 11  2  0  0  0  0
 10 12  1  0  0  0  0
 12 13  1  0  0  0  0
 13 14  1  0  0  0  0
 14 15  2  0  0  0  0
 15 16  1  0  0  0  0
 16 17  1  0  0  0  0
 17 18  2  0  0  0  0
 17 19  1  0  0  0  0
 19 20  1  0  0  0  0
 19 14  1  0  0  0  0
 20 21  1  0  0  0  0
 21 22  1  0  0  0  0
 22 20  1  0  0  0  0
 23 24  2  0  0  0  0
 24  4  1  0  0  0  0
M  END
>  <CHROM.1>
-7.00679257,66.39919111,-101.32166524,-61.95922180,-162.11781374,-3.16305387
-74.86163982,42.98436748,-45.94983947,5.39068328,0.82807366,-0.42430055,-1.82210229

>  <Name>
design_0

>  <RI>
0

>  <Rbt.Current_Directory>
/home/ziqiaoxu/icml18-jtnn/VAEdesign

>  <Rbt.Executable>
rbdock ($Id: //depot/dev/client3/rdock/2013.1/src/exe/rbdock.cxx#4 $)

>  <Rbt.Library>
libRbt.so (2013.1, Build901 2013/11/27)

>  <Rbt.Parameter_File>
/export/apps/rDock/src/rDock_2013.1_src//data/scripts/dock.prm

>  <Rbt.Receptor>
/home/ziqiaoxu/icml18-jtnn/VAEdesign/targets/RdRp-SARS-CoV-2/pocket_docking.prm

>  <SCORE>
-24.0128

>  <SCORE.INTER>
-22.8017

>  <SCORE.INTER.CONST>
1

>  <SCORE.INTER.POLAR>
-2.73565

>  <SCORE.INTER.REPUL>
0

>  <SCORE.INTER.ROT>
7

>  <SCORE.INTER.VDW>
-25.9005

>  <SCORE.INTER.norm>
-0.95007

>  <SCORE.INTRA>
-1.21114

>  <SCORE.INTRA.DIHEDRAL>
-3.37146

>  <SCORE.INTRA.DIHEDRAL.0>
9.73212

>  <SCORE.INTRA.POLAR>
0

>  <SCORE.INTRA.POLAR.0>
0

>  <SCORE.INTRA.REPUL>
0

>  <SCORE.INTRA.REPUL.0>
0

>  <SCORE.INTRA.VDW>
0.474588

>  <SCORE.INTRA.VDW.0>
-3.15521

>  <SCORE.INTRA.norm>
-0.0504642

>  <SCORE.RESTR>
0

>  <SCORE.RESTR.CAVITY>
0

>  <SCORE.RESTR.norm>
0

>  <SCORE.SYSTEM>
0

>  <SCORE.SYSTEM.CONST>
0

>  <SCORE.SYSTEM.DIHEDRAL>
0

>  <SCORE.SYSTEM.norm>
0

>  <SCORE.heavy>
24

>  <SCORE.norm>
-1.00053

$$$$
design_7
 OpenBabel05252019093D

 25 27  0  0  0  0  0  0  0  0999 V2000
   34.6981  -39.8803    5.9724 C   0  0  0  0  0  0  0  0  0  0  0  0
   35.0332  -41.2845    5.8418 N   0  0  0  0  0  0  0  0  0  0  0  0
   36.3489  -41.7057    6.0830 C   0  0  0  0  0  0  0  0  0  0  0  0
   37.2097  -40.8307    6.4113 O   0  0  0  0  0  0  0  0  0  0  0  0
   36.7297  -43.1048    5.9637 C   0  0  0  0  0  0  0  0  0  0  0  0
   38.0115  -43.5720    6.0772 C   0  0  0  0  0  0  0  0  0  0  0  0
   38.3010  -44.9405    5.9487 C   0  0  0  0  0  0  0  0  0  0  0  0
   37.3423  -45.8869    5.7047 C   0  0  0  0  0  0  0  0  0  0  0  0
   37.6169  -47.3208    5.5347 C   0  0  0  0  0  0  0  0  0  0  0  0
   38.7158  -47.9055    6.3366 C   0  0  0  0  0  0  0  0  0  0  0  0
   40.0581  -47.4341    6.0411 C   0  0  0  0  0  0  0  0  0  0  0  0
   40.6858  -47.7970    5.0325 O   0  0  0  0  0  0  0  0  0  0  0  0
   40.7448  -46.5018    6.9169 N   0  0  0  0  0  0  0  0  0  0  0  0
   42.0660  -46.0356    6.6272 C   0  0  0  0  0  0  0  0  0  0  0  0
   42.1503  -44.5741    7.0236 C   0  0  0  0  0  0  0  0  0  0  0  0
   41.9280  -44.4010    8.5046 C   0  0  0  0  0  0  0  0  0  0  0  0
   43.2728  -44.3404    9.1857 C   0  0  0  0  0  0  0  0  0  0  0  0
   43.4927  -44.2346   10.4867 N   0  0  0  0  0  0  0  0  0  0  0  0
   44.7051  -44.1933   10.9340 C   0  0  0  0  0  0  0  0  0  0  0  0
   45.7260  -44.2626   10.0202 C   0  0  0  0  0  0  0  0  0  0  0  0
   44.8551  -44.3848    8.5507 S   0  0  0  0  0  0  0  0  0  0  0  0
   41.1657  -45.5422    9.1113 C   0  0  0  0  0  0  0  0  0  0  0  0
   40.0985  -46.0108    8.1261 C   0  0  0  0  0  0  0  0  0  0  0  0
   36.0274  -45.3944    5.5906 C   0  0  0  0  0  0  0  0  0  0  0  0
   35.7438  -44.0687    5.7150 C   0  0  0  0  0  0  0  0  0  0  0  0
  1  2  1  0  0  0  0
  2  3  1  0  0  0  0
  3  4  2  0  0  0  0
  3  5  1  0  0  0  0
  5  6  2  0  0  0  0
  6  7  1  0  0  0  0
  7  8  2  0  0  0  0
  8  9  1  0  0  0  0
  8 24  1  0  0  0  0
  9 10  1  0  0  0  0
 10 11  1  0  0  0  0
 11 12  2  0  0  0  0
 11 13  1  0  0  0  0
 13 14  1  0  0  0  0
 14 15  1  0  0  0  0
 15 16  1  0  0  0  0
 16 17  1  0  0  0  0
 16 22  1  0  0  0  0
 17 18  2  0  0  0  0
 18 19  1  0  0  0  0
 19 20  2  0  0  0  0
 20 21  1  0  0  0  0
 21 17  1  0  0  0  0
 22 23  1  0  0  0  0
 23 13  1  0  0  0  0
 24 25  2  0  0  0  0
 25  5  1  0  0  0  0
M  END
>  <CHROM.1>
174.45214100,34.53168246,-65.68555512,-75.43823449,-177.81802358,39.95095722
-44.59601250,7.16530954,-3.05471613,0.43963948,-2.82247383

>  <Name>
design_7

>  <RI>
0

>  <Rbt.Current_Directory>
/home/ziqiaoxu/icml18-jtnn/VAEdesign

>  <Rbt.Executable>
rbdock ($Id: //depot/dev/client3/rdock/2013.1/src/exe/rbdock.cxx#4 $)

>  <Rbt.Library>
libRbt.so (2013.1, Build901 2013/11/27)

>  <Rbt.Parameter_File>
/export/apps/rDock/src/rDock_2013.1_src//data/scripts/dock.prm

>  <Rbt.Receptor>
/home/ziqiaoxu/icml18-jtnn/VAEdesign/targets/RdRp-SARS-CoV-2/pocket_docking.prm

>  <SCORE>
-17.7735

>  <SCORE.INTER>
-18.7531

>  <SCORE.INTER.CONST>
1

>  <SCORE.INTER.POLAR>
-0.962495

>  <SCORE.INTER.REPUL>
0.00332581

>  <SCORE.INTER.ROT>
5

>  <SCORE.INTER.VDW>
-25.8972

>  <SCORE.INTER.norm>
-0.750123

>  <SCORE.INTRA>
0.979576

>  <SCORE.INTRA.DIHEDRAL>
1.53593

>  <SCORE.INTRA.DIHEDRAL.0>
2.99302

>  <SCORE.INTRA.POLAR>
0

>  <SCORE.INTRA.POLAR.0>
0

>  <SCORE.INTRA.REPUL>
0

>  <SCORE.INTRA.REPUL.0>
0

>  <SCORE.INTRA.VDW>
0.21161

>  <SCORE.INTRA.VDW.0>
-1.57196

>  <SCORE.INTRA.norm>
0.039183

>  <SCORE.RESTR>
0

>  <SCORE.RESTR.CAVITY>
0

>  <SCORE.RESTR.norm>
0

>  <SCORE.SYSTEM>
0

>  <SCORE.SYSTEM.CONST>
0

>  <SCORE.SYSTEM.DIHEDRAL>
0

>  <SCORE.SYSTEM.norm>
0

>  <SCORE.heavy>
25

>  <SCORE.norm>
-0.71094

$$$$
design_2
 OpenBabel05252019093D

 24 26  0  0  0  0  0  0  0  0999 V2000
   38.9207  -48.9081    6.4707 C   0  0  0  0  0  0  0  0  0  0  0  0
   39.2595  -47.8783    7.4849 C   0  0  0  0  0  0  0  0  0  0  0  0
   38.3355  -47.5725    8.4598 C   0  0  0  0  0  0  0  0  0  0  0  0
   38.6103  -46.6171    9.4272 C   0  0  0  0  0  0  0  0  0  0  0  0
   39.8150  -45.9795    9.4015 C   0  0  0  0  0  0  0  0  0  0  0  0
   40.7759  -46.2510    8.4438 C   0  0  0  0  0  0  0  0  0  0  0  0
   42.0577  -45.5631    8.4272 C   0  0  0  0  0  0  0  0  0  0  0  0
   43.0054  -45.5890    7.4981 N   0  0  0  0  0  0  0  0  0  0  0  0
   44.0429  -44.8016    7.8810 C   0  0  0  0  0  0  0  0  0  0  0  0
   45.3087  -44.5227    7.1768 C   0  0  0  0  0  0  0  0  0  0  0  0
   45.0043  -44.5522    5.6874 C   0  0  0  0  0  0  0  0  0  0  0  0
   44.2844  -43.6607    5.2324 O   0  0  0  0  0  0  0  0  0  0  0  0
   45.5425  -45.5745    4.8927 N   0  0  0  0  0  0  0  0  0  0  0  0
   45.4149  -45.8199    3.5240 C   0  0  0  0  0  0  0  0  0  0  0  0
   44.3187  -45.4508    2.7955 C   0  0  0  0  0  0  0  0  0  0  0  0
   44.2106  -45.7036    1.4367 C   0  0  0  0  0  0  0  0  0  0  0  0
   45.2338  -46.3462    0.7898 C   0  0  0  0  0  0  0  0  0  0  0  0
   45.1459  -46.6269   -0.6496 C   0  0  0  0  0  0  0  0  0  0  0  0
   46.3357  -46.7193    1.5127 C   0  0  0  0  0  0  0  0  0  0  0  0
   46.4526  -46.4744    2.8552 C   0  0  0  0  0  0  0  0  0  0  0  0
   47.6881  -46.9079    3.5981 C   0  0  0  0  0  0  0  0  0  0  0  0
   43.7165  -44.2830    9.0756 N   0  0  0  0  0  0  0  0  0  0  0  0
   42.5057  -44.7532    9.3987 N   0  0  0  0  0  0  0  0  0  0  0  0
   40.4570  -47.2148    7.4952 C   0  0  0  0  0  0  0  0  0  0  0  0
  1  2  1  0  0  0  0
  2  3  2  0  0  0  0
  3  4  1  0  0  0  0
  4  5  2  0  0  0  0
  5  6  1  0  0  0  0
  6  7  1  0  0  0  0
  6 24  2  0  0  0  0
  7  8  2  0  0  0  0
  8  9  1  0  0  0  0
  9 10  1  0  0  0  0
  9 22  2  0  0  0  0
 10 11  1  0  0  0  0
 11 12  2  0  0  0  0
 11 13  1  0  0  0  0
 13 14  1  0  0  0  0
 14 15  2  0  0  0  0
 15 16  1  0  0  0  0
 16 17  2  0  0  0  0
 17 18  1  0  0  0  0
 17 19  1  0  0  0  0
 19 20  2  0  0  0  0
 20 21  1  0  0  0  0
 20 14  1  0  0  0  0
 22 23  1  0  0  0  0
 23  7  1  0  0  0  0
 24  2  1  0  0  0  0
M  END
>  <CHROM.1>
-170.97124756,32.65137564,67.52352410,-28.74045904,43.21916881,-45.97759413
5.75359663,2.38577767,0.46279243,1.19575579

>  <Name>
design_2

>  <RI>
0

>  <Rbt.Current_Directory>
/home/ziqiaoxu/icml18-jtnn/VAEdesign

>  <Rbt.Executable>
rbdock ($Id: //depot/dev/client3/rdock/2013.1/src/exe/rbdock.cxx#4 $)

>  <Rbt.Library>
libRbt.so (2013.1, Build901 2013/11/27)

>  <Rbt.Parameter_File>
/export/apps/rDock/src/rDock_2013.1_src//data/scripts/dock.prm

>  <Rbt.Receptor>
/home/ziqiaoxu/icml18-jtnn/VAEdesign/targets/RdRp-SARS-CoV-2/pocket_docking.prm

>  <SCORE>
-20.043

>  <SCORE.INTER>
-19.5362

>  <SCORE.INTER.CONST>
1

>  <SCORE.INTER.POLAR>
-0.894427

>  <SCORE.INTER.REPUL>
0

>  <SCORE.INTER.ROT>
4

>  <SCORE.INTER.VDW>
-25.8952

>  <SCORE.INTER.norm>
-0.814009

>  <SCORE.INTRA>
-0.506819

>  <SCORE.INTRA.DIHEDRAL>
3.27584

>  <SCORE.INTRA.DIHEDRAL.0>
2.6949

>  <SCORE.INTRA.POLAR>
0

>  <SCORE.INTRA.POLAR.0>
0

>  <SCORE.INTRA.REPUL>
0

>  <SCORE.INTRA.REPUL.0>
0

>  <SCORE.INTRA.VDW>
-2.14474

>  <SCORE.INTRA.VDW.0>
1.28

>  <SCORE.INTRA.norm>
-0.0211175

>  <SCORE.RESTR>
0

>  <SCORE.RESTR.CAVITY>
0

>  <SCORE.RESTR.norm>
0

>  <SCORE.SYSTEM>
0

>  <SCORE.SYSTEM.CONST>
0

>  <SCORE.SYSTEM.DIHEDRAL>
0

>  <SCORE.SYSTEM.norm>
0

>  <SCORE.heavy>
24

>  <SCORE.norm>
-0.835126

$$$$
design_7
 OpenBabel05252019093D

 24 25  0  0  0  0  0  0  0  0999 V2000
   43.8582  -37.3208    2.3356 C   0  0  0  0  0  0  0  0  0  0  0  0
   42.5098  -37.3508    1.6890 C   0  0  0  0  0  0  0  0  0  0  0  0
   41.4140  -36.7938    2.5504 C   0  0  1  0  0  0  0  0  0  0  0  0
   40.0967  -36.7444    1.7971 C   0  0  0  0  0  0  0  0  0  0  0  0
   41.2229  -37.7329    3.6559 N   0  0  0  0  0  0  0  0  0  0  0  0
   40.5990  -37.3763    4.8559 C   0  0  0  0  0  0  0  0  0  0  0  0
   40.1696  -36.1765    5.0091 O   0  0  0  0  0  0  0  0  0  0  0  0
   40.4204  -38.3248    5.9377 C   0  0  0  0  0  0  0  0  0  0  0  0
   40.3537  -37.9028    7.2247 C   0  0  0  0  0  0  0  0  0  0  0  0
   40.1904  -38.7659    8.2795 C   0  0  0  0  0  0  0  0  0  0  0  0
   40.0891  -40.1321    8.0121 C   0  0  0  0  0  0  0  0  0  0  0  0
   39.9116  -40.9757    9.1186 N   0  0  0  0  0  0  0  0  0  0  0  0
   40.0926  -42.3645    9.1854 C   0  0  0  0  0  0  0  0  0  0  0  0
   40.4519  -43.0455    8.2248 O   0  0  0  0  0  0  0  0  0  0  0  0
   39.8440  -43.0641   10.4670 C   0  0  0  0  0  0  0  0  0  0  0  0
   40.8703  -44.4917   10.7206 S   0  0  0  0  0  0  0  0  0  0  0  0
   40.6034  -45.7007    9.4576 C   0  0  0  0  0  0  0  0  0  0  0  0
   39.4865  -46.4928    9.4649 C   0  0  0  0  0  0  0  0  0  0  0  0
   39.2786  -47.4307    8.4487 C   0  0  0  0  0  0  0  0  0  0  0  0
   40.1828  -47.5461    7.4697 N   0  0  0  0  0  0  0  0  0  0  0  0
   41.2953  -46.7950    7.4147 C   0  0  0  0  0  0  0  0  0  0  0  0
   41.5011  -45.8786    8.4051 C   0  0  0  0  0  0  0  0  0  0  0  0
   40.1519  -40.5875    6.7288 C   0  0  0  0  0  0  0  0  0  0  0  0
   40.3199  -39.6599    5.6941 C   0  0  0  0  0  0  0  0  0  0  0  0
  1  2  1  0  0  0  0
  2  3  1  0  0  0  0
  3  4  1  6  0  0  0
  3  5  1  0  0  0  0
  5  6  1  0  0  0  0
  6  7  2  0  0  0  0
  6  8  1  0  0  0  0
  8  9  2  0  0  0  0
  9 10  1  0  0  0  0
 10 11  2  0  0  0  0
 11 12  1  0  0  0  0
 11 23  1  0  0  0  0
 12 13  1  0  0  0  0
 13 14  2  0  0  0  0
 13 15  1  0  0  0  0
 15 16  1  0  0  0  0
 16 17  1  0  0  0  0
 17 18  2  0  0  0  0
 18 19  1  0  0  0  0
 19 20  2  0  0  0  0
 20 21  1  0  0  0  0
 21 22  2  0  0  0  0
 22 17  1  0  0  0  0
 23 24  2  0  0  0  0
 24  8  1  0  0  0  0
M  END
>  <CHROM.1>
175.21757457,159.92811133,152.19765163,-163.57598856,-148.37564170,-60.78940208
-76.18827532,40.65102157,-41.29908628,6.90374463,-1.25443686,-1.27859494
2.85114622

>  <Name>
design_7

>  <RI>
0

>  <Rbt.Current_Directory>
/home/ziqiaoxu/icml18-jtnn/VAEdesign

>  <Rbt.Executable>
rbdock ($Id: //depot/dev/client3/rdock/2013.1/src/exe/rbdock.cxx#4 $)

>  <Rbt.Library>
libRbt.so (2013.1, Build901 2013/11/27)

>  <Rbt.Parameter_File>
/export/apps/rDock/src/rDock_2013.1_src//data/scripts/dock.prm

>  <Rbt.Receptor>
/home/ziqiaoxu/icml18-jtnn/VAEdesign/targets/RdRp-SARS-CoV-2/pocket_docking.prm

>  <SCORE>
-17.0905

>  <SCORE.INTER>
-16.5913

>  <SCORE.INTER.CONST>
1

>  <SCORE.INTER.POLAR>
-0.910627

>  <SCORE.INTER.REPUL>
0

>  <SCORE.INTER.ROT>
7

>  <SCORE.INTER.VDW>
-25.8951

>  <SCORE.INTER.norm>
-0.691303

>  <SCORE.INTRA>
-0.633217

>  <SCORE.INTRA.DIHEDRAL>
2.98458

>  <SCORE.INTRA.DIHEDRAL.0>
5.48217

>  <SCORE.INTRA.POLAR>
0

>  <SCORE.INTRA.POLAR.0>
0

>  <SCORE.INTRA.REPUL>
0

>  <SCORE.INTRA.REPUL.0>
0

>  <SCORE.INTRA.VDW>
-2.1255

>  <SCORE.INTRA.VDW.0>
1.05059

>  <SCORE.INTRA.norm>
-0.026384

>  <SCORE.RESTR>
0.134002

>  <SCORE.RESTR.CAVITY>
0.134002

>  <SCORE.RESTR.norm>
0.00558341

>  <SCORE.SYSTEM>
0

>  <SCORE.SYSTEM.CONST>
0

>  <SCORE.SYSTEM.DIHEDRAL>
0

>  <SCORE.SYSTEM.norm>
0

>  <SCORE.heavy>
24

>  <SCORE.norm>
-0.712104

$$$$
design_8
 OpenBabel05252019093D

 23 24  0  0  0  0  0  0  0  0999 V2000
   41.6425  -36.0180    2.2976 C   0  0  0  0  0  0  0  0  0  0  0  0
   40.1685  -36.2339    2.4814 C   0  0  0  0  0  0  0  0  0  0  0  0
   39.9139  -37.3991    3.4075 C   0  0  0  0  0  0  0  0  0  0  0  0
   39.4300  -38.4165    2.9206 O   0  0  0  0  0  0  0  0  0  0  0  0
   40.2380  -37.2579    4.7475 N   0  0  0  0  0  0  0  0  0  0  0  0
   40.0706  -38.2488    5.7468 C   0  0  0  0  0  0  0  0  0  0  0  0
   39.5486  -39.4941    5.5650 C   0  0  0  0  0  0  0  0  0  0  0  0
   39.4003  -40.4139    6.6253 C   0  0  0  0  0  0  0  0  0  0  0  0
   39.7698  -40.1155    7.8998 C   0  0  0  0  0  0  0  0  0  0  0  0
   39.6382  -40.9687    9.0243 N   0  0  0  0  0  0  0  0  0  0  0  0
   39.6190  -42.3686    9.0526 C   0  0  0  0  0  0  0  0  0  0  0  0
   39.7206  -43.0213    8.0030 O   0  0  0  0  0  0  0  0  0  0  0  0
   39.4777  -43.1320   10.3245 C   0  0  0  0  0  0  0  0  0  0  0  0
   40.1342  -44.3553   10.3431 O   0  0  0  0  0  0  0  0  0  0  0  0
   39.9405  -45.4114    9.4886 C   0  0  0  0  0  0  0  0  0  0  0  0
   38.7801  -46.1354    9.3879 C   0  0  0  0  0  0  0  0  0  0  0  0
   38.6757  -47.1664    8.5104 C   0  0  0  0  0  0  0  0  0  0  0  0
   39.7276  -47.5115    7.7020 C   0  0  0  0  0  0  0  0  0  0  0  0
   39.6172  -48.8309    6.5681 Cl  0  0  0  0  0  0  0  0  0  0  0  0
   40.9126  -46.8099    7.7719 C   0  0  0  0  0  0  0  0  0  0  0  0
   40.9992  -45.7840    8.6530 C   0  0  0  0  0  0  0  0  0  0  0  0
   40.3105  -38.8298    8.0912 C   0  0  0  0  0  0  0  0  0  0  0  0
   40.4543  -37.9414    7.0697 C   0  0  0  0  0  0  0  0  0  0  0  0
  1  2  1  0  0  0  0
  2  3  1  0  0  0  0
  3  4  2  0  0  0  0
  3  5  1  0  0  0  0
  5  6  1  0  0  0  0
  6  7  2  0  0  0  0
  7  8  1  0  0  0  0
  8  9  2  0  0  0  0
  9 10  1  0  0  0  0
  9 22  1  0  0  0  0
 10 11  1  0  0  0  0
 11 12  2  0  0  0  0
 11 13  1  0  0  0  0
 13 14  1  0  0  0  0
 14 15  1  0  0  0  0
 15 16  2  0  0  0  0
 16 17  1  0  0  0  0
 17 18  2  0  0  0  0
 18 19  1  0  0  0  0
 18 20  1  0  0  0  0
 20 21  2  0  0  0  0
 21 15  1  0  0  0  0
 22 23  2  0  0  0  0
 23  6  1  0  0  0  0
M  END
>  <CHROM.1>
-110.82815838,-0.97663006,27.04469016,-147.97226756,-58.75877386,-64.62433208
39.90896894,-42.21056763,6.96635208,-0.47383826,-1.51133186,-2.44220021

>  <Name>
design_8

>  <RI>
0

>  <Rbt.Current_Directory>
/home/ziqiaoxu/icml18-jtnn/VAEdesign

>  <Rbt.Executable>
rbdock ($Id: //depot/dev/client3/rdock/2013.1/src/exe/rbdock.cxx#4 $)

>  <Rbt.Library>
libRbt.so (2013.1, Build901 2013/11/27)

>  <Rbt.Parameter_File>
/export/apps/rDock/src/rDock_2013.1_src//data/scripts/dock.prm

>  <Rbt.Receptor>
/home/ziqiaoxu/icml18-jtnn/VAEdesign/targets/RdRp-SARS-CoV-2/pocket_docking.prm

>  <SCORE>
-17.7733

>  <SCORE.INTER>
-17.1734

>  <SCORE.INTER.CONST>
1

>  <SCORE.INTER.POLAR>
-0.787896

>  <SCORE.INTER.REPUL>
0

>  <SCORE.INTER.ROT>
6

>  <SCORE.INTER.VDW>
-25.8945

>  <SCORE.INTER.norm>
-0.746668

>  <SCORE.INTRA>
-0.599991

>  <SCORE.INTRA.DIHEDRAL>
5.08058

>  <SCORE.INTRA.DIHEDRAL.0>
3.91915

>  <SCORE.INTRA.POLAR>
0

>  <SCORE.INTRA.POLAR.0>
0

>  <SCORE.INTRA.REPUL>
0

>  <SCORE.INTRA.REPUL.0>
0

>  <SCORE.INTRA.VDW>
-3.14028

>  <SCORE.INTRA.VDW.0>
1.58699

>  <SCORE.INTRA.norm>
-0.0260865

>  <SCORE.RESTR>
0

>  <SCORE.RESTR.CAVITY>
0

>  <SCORE.RESTR.norm>
0

>  <SCORE.SYSTEM>
0

>  <SCORE.SYSTEM.CONST>
0

>  <SCORE.SYSTEM.DIHEDRAL>
0

>  <SCORE.SYSTEM.norm>
0

>  <SCORE.heavy>
23

>  <SCORE.norm>
-0.772754

$$$$
design_14
 OpenBabel05252019093D

 26 28  0  0  0  0  0  0  0  0999 V2000
   40.7871  -44.1298    2.4168 C   0  0  0  0  0  0  0  0  0  0  0  0
   41.8582  -43.4005    1.7446 C   0  0  0  0  0  0  0  0  0  0  0  0
   41.6017  -42.1030    1.3194 C   0  0  0  0  0  0  0  0  0  0  0  0
   42.5407  -41.3452    0.6854 C   0  0  0  0  0  0  0  0  0  0  0  0
   43.7925  -41.8725    0.4522 C   0  0  0  0  0  0  0  0  0  0  0  0
   44.0484  -43.1744    0.8794 C   0  0  0  0  0  0  0  0  0  0  0  0
   43.0985  -43.9379    1.5194 C   0  0  0  0  0  0  0  0  0  0  0  0
   43.4210  -45.3169    1.9274 C   0  0  2  0  0  0  0  0  0  0  0  0
   44.2513  -45.4322    3.1713 C   0  0  0  0  0  0  0  0  0  0  0  0
   43.4325  -45.5550    4.4156 C   0  0  0  0  0  0  0  0  0  0  0  0
   43.9462  -45.0454    5.4356 O   0  0  0  0  0  0  0  0  0  0  0  0
   42.1897  -46.1892    4.4396 N   0  0  0  0  0  0  0  0  0  0  0  0
   41.2953  -46.4007    5.4824 C   0  0  0  0  0  0  0  0  0  0  0  0
   40.1413  -47.1603    5.2310 C   0  0  0  0  0  0  0  0  0  0  0  0
   39.2461  -47.3792    6.2503 C   0  0  0  0  0  0  0  0  0  0  0  0
   39.4427  -46.8759    7.5185 C   0  0  0  0  0  0  0  0  0  0  0  0
   40.5763  -46.1373    7.7408 C   0  0  0  0  0  0  0  0  0  0  0  0
   40.7740  -45.6059    9.0941 C   0  0  0  0  0  0  0  0  0  0  0  0
   40.1585  -46.1990   10.2251 N   0  0  0  0  0  0  0  0  0  0  0  0
   41.5093  -44.5998    9.2400 O   0  0  0  0  0  0  0  0  0  0  0  0
   41.5213  -45.8844    6.7367 C   0  0  0  0  0  0  0  0  0  0  0  0
   44.1641  -45.9706    0.8486 N   0  0  0  0  0  0  0  0  0  0  0  0
   43.6215  -46.6352   -0.1976 C   0  0  0  0  0  0  0  0  0  0  0  0
   44.5953  -47.1200   -1.0191 C   0  0  0  0  0  0  0  0  0  0  0  0
   45.7997  -46.7438   -0.4652 C   0  0  0  0  0  0  0  0  0  0  0  0
   45.4965  -46.0425    0.6761 C   0  0  0  0  0  0  0  0  0  0  0  0
  1  2  1  0  0  0  0
  2  3  2  0  0  0  0
  3  4  1  0  0  0  0
  4  5  2  0  0  0  0
  5  6  1  0  0  0  0
  6  7  2  0  0  0  0
  7  8  1  0  0  0  0
  7  2  1  0  0  0  0
  8  9  1  1  0  0  0
  8 22  1  0  0  0  0
  9 10  1  0  0  0  0
 10 11  2  0  0  0  0
 10 12  1  0  0  0  0
 12 13  1  0  0  0  0
 13 14  2  0  0  0  0
 14 15  1  0  0  0  0
 15 16  2  0  0  0  0
 16 17  1  0  0  0  0
 17 18  1  0  0  0  0
 17 21  2  0  0  0  0
 18 19  1  0  0  0  0
 18 20  2  0  0  0  0
 21 13  1  0  0  0  0
 22 23  1  0  0  0  0
 23 24  2  0  0  0  0
 24 25  1  0  0  0  0
 25 26  2  0  0  0  0
 26 22  1  0  0  0  0
M  END
>  <CHROM.1>
-103.08240586,91.45528223,-147.94714416,-175.74111787,23.39774545,-87.57959266
42.42761294,-45.24687421,3.76694418,0.65678041,1.04121945,-0.54995585

>  <Name>
design_14

>  <RI>
0

>  <Rbt.Current_Directory>
/home/ziqiaoxu/icml18-jtnn/VAEdesign

>  <Rbt.Executable>
rbdock ($Id: //depot/dev/client3/rdock/2013.1/src/exe/rbdock.cxx#4 $)

>  <Rbt.Library>
libRbt.so (2013.1, Build901 2013/11/27)

>  <Rbt.Parameter_File>
/export/apps/rDock/src/rDock_2013.1_src//data/scripts/dock.prm

>  <Rbt.Receptor>
/home/ziqiaoxu/icml18-jtnn/VAEdesign/targets/RdRp-SARS-CoV-2/pocket_docking.prm

>  <SCORE>
-24.2941

>  <SCORE.INTER>
-25.4032

>  <SCORE.INTER.CONST>
1

>  <SCORE.INTER.POLAR>
-3.31814

>  <SCORE.INTER.REPUL>
0.0744228

>  <SCORE.INTER.ROT>
6

>  <SCORE.INTER.VDW>
-25.8936

>  <SCORE.INTER.norm>
-0.977045

>  <SCORE.INTRA>
1.10907

>  <SCORE.INTRA.DIHEDRAL>
5.59827

>  <SCORE.INTRA.DIHEDRAL.0>
4.26493

>  <SCORE.INTRA.POLAR>
0

>  <SCORE.INTRA.POLAR.0>
0

>  <SCORE.INTRA.REPUL>
0

>  <SCORE.INTRA.REPUL.0>
0

>  <SCORE.INTRA.VDW>
-1.69007

>  <SCORE.INTRA.VDW.0>
0.251915

>  <SCORE.INTRA.norm>
0.0426564

>  <SCORE.RESTR>
0

>  <SCORE.RESTR.CAVITY>
0

>  <SCORE.RESTR.norm>
0

>  <SCORE.SYSTEM>
0

>  <SCORE.SYSTEM.CONST>
0

>  <SCORE.SYSTEM.DIHEDRAL>
0

>  <SCORE.SYSTEM.norm>
0

>  <SCORE.heavy>
26

>  <SCORE.norm>
-0.934389

$$$$
design_10
 OpenBabel05252019093D

 24 25  0  0  0  0  0  0  0  0999 V2000
   40.1326  -36.4441    1.6236 C   0  0  0  0  0  0  0  0  0  0  0  0
   40.0743  -36.9406    3.0377 C   0  0  0  0  0  0  0  0  0  0  0  0
   40.0168  -36.0872    4.1069 C   0  0  0  0  0  0  0  0  0  0  0  0
   39.9621  -36.5479    5.4323 C   0  0  0  0  0  0  0  0  0  0  0  0
   39.9639  -37.8780    5.6978 C   0  0  0  0  0  0  0  0  0  0  0  0
   39.8898  -38.3996    6.9922 N   0  0  0  0  0  0  0  0  0  0  0  0
   40.0619  -39.7394    7.3368 C   0  0  0  0  0  0  0  0  0  0  0  0
   40.3192  -40.6442    6.5285 O   0  0  0  0  0  0  0  0  0  0  0  0
   39.9289  -40.0871    8.7374 N   0  0  0  0  0  0  0  0  0  0  0  0
   40.1028  -41.4577    9.1061 C   0  0  0  0  0  0  0  0  0  0  0  0
   39.5484  -41.7436   10.4924 C   0  0  0  0  0  0  0  0  0  0  0  0
   40.2891  -42.9354   11.0251 C   0  0  0  0  0  0  0  0  0  0  0  0
   39.8783  -44.1224   10.3164 N   0  0  0  0  0  0  0  0  0  0  0  0
   40.6851  -44.6576    9.2946 C   0  0  0  0  0  0  0  0  0  0  0  0
   41.8023  -44.1472    8.9428 O   0  0  0  0  0  0  0  0  0  0  0  0
   40.2122  -45.8644    8.6002 C   0  0  0  0  0  0  0  0  0  0  0  0
   39.0710  -46.5186    8.9693 C   0  0  0  0  0  0  0  0  0  0  0  0
   38.6303  -47.6628    8.2933 C   0  0  0  0  0  0  0  0  0  0  0  0
   39.3415  -48.1634    7.2295 C   0  0  0  0  0  0  0  0  0  0  0  0
   38.8901  -49.3691    6.5060 C   0  0  0  0  0  0  0  0  0  0  0  0
   40.4967  -47.5054    6.8525 C   0  0  0  0  0  0  0  0  0  0  0  0
   40.9292  -46.3788    7.5192 C   0  0  0  0  0  0  0  0  0  0  0  0
   40.0235  -38.7327    4.5903 C   0  0  0  0  0  0  0  0  0  0  0  0
   40.0776  -38.2917    3.2921 C   0  0  0  0  0  0  0  0  0  0  0  0
  1  2  1  0  0  0  0
  2  3  2  0  0  0  0
  3  4  1  0  0  0  0
  4  5  2  0  0  0  0
  5  6  1  0  0  0  0
  5 23  1  0  0  0  0
  6  7  1  0  0  0  0
  7  8  2  0  0  0  0
  7  9  1  0  0  0  0
  9 10  1  0  0  0  0
 10 11  1  0  0  0  0
 11 12  1  0  0  0  0
 12 13  1  0  0  0  0
 13 14  1  0  0  0  0
 14 15  2  0  0  0  0
 14 16  1  0  0  0  0
 16 17  2  0  0  0  0
 17 18  1  0  0  0  0
 18 19  2  0  0  0  0
 19 20  1  0  0  0  0
 19 21  1  0  0  0  0
 21 22  2  0  0  0  0
 22 16  1  0  0  0  0
 23 24  2  0  0  0  0
 24  2  1  0  0  0  0
M  END
>  <CHROM.1>
-171.14207139,-163.36209006,-154.87612601,-71.28319991,101.06134421,-4.13819763
40.01923242,-42.08398833,7.14671696,1.23724915,-1.49767220,-0.73467933

>  <Name>
design_10

>  <RI>
0

>  <Rbt.Current_Directory>
/home/ziqiaoxu/icml18-jtnn/VAEdesign

>  <Rbt.Executable>
rbdock ($Id: //depot/dev/client3/rdock/2013.1/src/exe/rbdock.cxx#4 $)

>  <Rbt.Library>
libRbt.so (2013.1, Build901 2013/11/27)

>  <Rbt.Parameter_File>
/export/apps/rDock/src/rDock_2013.1_src//data/scripts/dock.prm

>  <Rbt.Receptor>
/home/ziqiaoxu/icml18-jtnn/VAEdesign/targets/RdRp-SARS-CoV-2/pocket_docking.prm

>  <SCORE>
-20.9465

>  <SCORE.INTER>
-20.4224

>  <SCORE.INTER.CONST>
1

>  <SCORE.INTER.POLAR>
-1.74448

>  <SCORE.INTER.REPUL>
0

>  <SCORE.INTER.ROT>
6

>  <SCORE.INTER.VDW>
-25.8912

>  <SCORE.INTER.norm>
-0.850933

>  <SCORE.INTRA>
-0.524074

>  <SCORE.INTRA.DIHEDRAL>
0.208191

>  <SCORE.INTRA.DIHEDRAL.0>
5.13423

>  <SCORE.INTRA.POLAR>
0

>  <SCORE.INTRA.POLAR.0>
0

>  <SCORE.INTRA.REPUL>
0

>  <SCORE.INTRA.REPUL.0>
0

>  <SCORE.INTRA.VDW>
-0.62817

>  <SCORE.INTRA.VDW.0>
0.39992

>  <SCORE.INTRA.norm>
-0.0218364

>  <SCORE.RESTR>
0

>  <SCORE.RESTR.CAVITY>
0

>  <SCORE.RESTR.norm>
0

>  <SCORE.SYSTEM>
0

>  <SCORE.SYSTEM.CONST>
0

>  <SCORE.SYSTEM.DIHEDRAL>
0

>  <SCORE.SYSTEM.norm>
0

>  <SCORE.heavy>
24

>  <SCORE.norm>
-0.87277

$$$$
design_0
 OpenBabel05252019093D

 23 24  0  0  0  0  0  0  0  0999 V2000
   45.0698  -41.1316   -0.7229 C   0  0  0  0  0  0  0  0  0  0  0  0
   44.0051  -41.8215    0.0583 C   0  0  0  0  0  0  0  0  0  0  0  0
   44.1922  -43.1440    0.3646 C   0  0  0  0  0  0  0  0  0  0  0  0
   43.2396  -43.8662    1.0957 C   0  0  0  0  0  0  0  0  0  0  0  0
   42.1020  -43.2125    1.5031 C   0  0  0  0  0  0  0  0  0  0  0  0
   40.8751  -44.0964    2.4307 S   0  0  0  0  0  0  0  0  0  0  0  0
   41.4863  -44.3498    4.1060 C   0  0  0  0  0  0  0  0  0  0  0  0
   40.4894  -44.9849    4.9790 C   0  0  0  0  0  0  0  0  0  0  0  0
   39.9509  -44.3376    5.9110 O   0  0  0  0  0  0  0  0  0  0  0  0
   40.1344  -46.3327    4.7684 N   0  0  0  0  0  0  0  0  0  0  0  0
   39.1777  -47.0267    5.5702 C   0  0  0  0  0  0  0  0  0  0  0  0
   39.7756  -48.0385    6.5202 C   0  0  2  0  0  0  0  0  0  0  0  0
   38.7783  -49.1841    6.7521 C   0  0  0  0  0  0  0  0  0  0  0  0
   39.9928  -47.3777    7.8758 C   0  0  0  0  0  0  0  0  0  0  0  0
   41.1300  -46.4892    7.8917 N   0  0  0  0  0  0  0  0  0  0  0  0
   42.1385  -46.5083    7.0239 N   0  0  0  0  0  0  0  0  0  0  0  0
   43.0232  -45.5622    7.3046 C   0  0  0  0  0  0  0  0  0  0  0  0
   44.2795  -45.2604    6.5761 C   0  0  0  0  0  0  0  0  0  0  0  0
   42.5459  -44.8983    8.4240 C   0  0  0  0  0  0  0  0  0  0  0  0
   41.3554  -45.5003    8.7725 C   0  0  0  0  0  0  0  0  0  0  0  0
   40.4818  -45.1278    9.9094 C   0  0  0  0  0  0  0  0  0  0  0  0
   41.9249  -41.8879    1.1908 C   0  0  0  0  0  0  0  0  0  0  0  0
   42.8774  -41.1768    0.4632 C   0  0  0  0  0  0  0  0  0  0  0  0
  1  2  1  0  0  0  0
  2  3  2  0  0  0  0
  3  4  1  0  0  0  0
  4  5  2  0  0  0  0
  5  6  1  0  0  0  0
  5 22  1  0  0  0  0
  6  7  1  0  0  0  0
  7  8  1  0  0  0  0
  8  9  2  0  0  0  0
  8 10  1  0  0  0  0
 10 11  1  0  0  0  0
 11 12  1  0  0  0  0
 12 13  1  1  0  0  0
 12 14  1  0  0  0  0
 14 15  1  0  0  0  0
 15 16  1  0  0  0  0
 16 17  2  0  0  0  0
 17 18  1  0  0  0  0
 17 19  1  0  0  0  0
 19 20  2  0  0  0  0
 20 21  1  0  0  0  0
 20 15  1  0  0  0  0
 22 23  2  0  0  0  0
 23  2  1  0  0  0  0
M  END
>  <CHROM.1>
73.81381390,175.53505031,-110.39848783,-106.77326520,-150.00227462,-75.35696540
-19.96807742,41.61551794,-44.84357543,4.65703238,-1.17400053,0.63022962,1.88012464

>  <Name>
design_0

>  <RI>
0

>  <Rbt.Current_Directory>
/home/ziqiaoxu/icml18-jtnn/VAEdesign

>  <Rbt.Executable>
rbdock ($Id: //depot/dev/client3/rdock/2013.1/src/exe/rbdock.cxx#4 $)

>  <Rbt.Library>
libRbt.so (2013.1, Build901 2013/11/27)

>  <Rbt.Parameter_File>
/export/apps/rDock/src/rDock_2013.1_src//data/scripts/dock.prm

>  <Rbt.Receptor>
/home/ziqiaoxu/icml18-jtnn/VAEdesign/targets/RdRp-SARS-CoV-2/pocket_docking.prm

>  <SCORE>
-18.2417

>  <SCORE.INTER>
-17.1958

>  <SCORE.INTER.CONST>
1

>  <SCORE.INTER.POLAR>
-1.08972

>  <SCORE.INTER.REPUL>
0

>  <SCORE.INTER.ROT>
7

>  <SCORE.INTER.VDW>
-25.8907

>  <SCORE.INTER.norm>
-0.747642

>  <SCORE.INTRA>
-1.04591

>  <SCORE.INTRA.DIHEDRAL>
3.4269

>  <SCORE.INTRA.DIHEDRAL.0>
6.96103

>  <SCORE.INTRA.POLAR>
0

>  <SCORE.INTRA.POLAR.0>
0

>  <SCORE.INTRA.REPUL>
0

>  <SCORE.INTRA.REPUL.0>
0

>  <SCORE.INTRA.VDW>
-2.75936

>  <SCORE.INTRA.VDW.0>
-1.65624

>  <SCORE.INTRA.norm>
-0.0454743

>  <SCORE.RESTR>
0

>  <SCORE.RESTR.CAVITY>
0

>  <SCORE.RESTR.norm>
0

>  <SCORE.SYSTEM>
0

>  <SCORE.SYSTEM.CONST>
0

>  <SCORE.SYSTEM.DIHEDRAL>
0

>  <SCORE.SYSTEM.norm>
0

>  <SCORE.heavy>
23

>  <SCORE.norm>
-0.793116

$$$$
design_6
 OpenBabel05252019093D

 24 27  0  0  0  0  0  0  0  0999 V2000
   35.6715  -42.0934    5.8762 C   0  0  0  0  0  0  0  0  0  0  0  0
   36.0625  -43.5303    5.8229 C   0  0  0  0  0  0  0  0  0  0  0  0
   35.2865  -44.5193    5.3846 N   0  0  0  0  0  0  0  0  0  0  0  0
   35.9564  -45.6522    5.4861 N   0  0  0  0  0  0  0  0  0  0  0  0
   37.1490  -45.3910    5.9855 C   0  0  0  0  0  0  0  0  0  0  0  0
   38.2072  -46.3718    6.3048 C   0  0  0  0  0  0  0  0  0  0  0  0
   38.0706  -47.7098    5.9928 C   0  0  0  0  0  0  0  0  0  0  0  0
   39.0647  -48.6102    6.2963 C   0  0  0  0  0  0  0  0  0  0  0  0
   40.1979  -48.1543    6.9173 C   0  0  0  0  0  0  0  0  0  0  0  0
   40.3944  -46.8491    7.2545 C   0  0  0  0  0  0  0  0  0  0  0  0
   41.5753  -46.2832    7.9281 C   0  0  0  0  0  0  0  0  0  0  0  0
   42.7085  -46.0514    7.0312 N   0  0  0  0  0  0  0  0  0  0  0  0
   43.8193  -45.3084    7.4506 C   0  0  0  0  0  0  0  0  0  0  0  0
   43.7821  -44.8396    8.6631 O   0  0  0  0  0  0  0  0  0  0  0  0
   45.0310  -44.9809    6.7136 C   0  0  0  0  0  0  0  0  0  0  0  0
   45.3756  -45.5150    5.0831 S   0  0  0  0  0  0  0  0  0  0  0  0
   46.8770  -44.7629    4.8516 C   0  0  0  0  0  0  0  0  0  0  0  0
   47.0771  -44.1129    6.0489 C   0  0  0  0  0  0  0  0  0  0  0  0
   46.1379  -44.2307    6.9879 C   0  0  0  0  0  0  0  0  0  0  0  0
   46.2990  -43.5659    8.3490 C   0  0  0  0  0  0  0  0  0  0  0  0
   47.4751  -42.6233    8.5463 C   0  0  0  0  0  0  0  0  0  0  0  0
   46.0775  -42.1292    8.5172 C   0  0  0  0  0  0  0  0  0  0  0  0
   39.3547  -45.9679    6.9238 C   0  0  0  0  0  0  0  0  0  0  0  0
   37.2310  -44.0737    6.1991 N   0  0  0  0  0  0  0  0  0  0  0  0
  1  2  1  0  0  0  0
  2  3  2  0  0  0  0
  3  4  1  0  0  0  0
  4  5  1  0  0  0  0
  5  6  1  0  0  0  0
  5 24  2  0  0  0  0
  6  7  2  0  0  0  0
  7  8  1  0  0  0  0
  8  9  2  0  0  0  0
  9 10  1  0  0  0  0
 10 11  1  0  0  0  0
 10 23  2  0  0  0  0
 11 12  1  0  0  0  0
 12 13  1  0  0  0  0
 13 14  2  0  0  0  0
 13 15  1  0  0  0  0
 15 16  1  0  0  0  0
 16 17  1  0  0  0  0
 17 18  2  0  0  0  0
 18 19  1  0  0  0  0
 19 20  1  0  0  0  0
 19 15  2  0  0  0  0
 20 21  1  0  0  0  0
 21 22  1  0  0  0  0
 22 20  1  0  0  0  0
 23  6  1  0  0  0  0
 24  2  1  0  0  0  0
M  END
>  <CHROM.1>
5.47011169,79.96649679,168.74731889,-1.75195558,-173.54995670,41.64544449
-45.13142745,6.61584669,3.01533619,0.09119207,-2.99948612

>  <Name>
design_6

>  <RI>
0

>  <Rbt.Current_Directory>
/home/ziqiaoxu/icml18-jtnn/VAEdesign

>  <Rbt.Executable>
rbdock ($Id: //depot/dev/client3/rdock/2013.1/src/exe/rbdock.cxx#4 $)

>  <Rbt.Library>
libRbt.so (2013.1, Build901 2013/11/27)

>  <Rbt.Parameter_File>
/export/apps/rDock/src/rDock_2013.1_src//data/scripts/dock.prm

>  <Rbt.Receptor>
/home/ziqiaoxu/icml18-jtnn/VAEdesign/targets/RdRp-SARS-CoV-2/pocket_docking.prm

>  <SCORE>
-18.825

>  <SCORE.INTER>
-18.7486

>  <SCORE.INTER.CONST>
1

>  <SCORE.INTER.POLAR>
-0.959166

>  <SCORE.INTER.REPUL>
0

>  <SCORE.INTER.ROT>
5

>  <SCORE.INTER.VDW>
-25.8874

>  <SCORE.INTER.norm>
-0.781191

>  <SCORE.INTRA>
-0.0764047

>  <SCORE.INTRA.DIHEDRAL>
0.0161221

>  <SCORE.INTRA.DIHEDRAL.0>
3.04963

>  <SCORE.INTRA.POLAR>
0

>  <SCORE.INTRA.POLAR.0>
0

>  <SCORE.INTRA.REPUL>
0

>  <SCORE.INTRA.REPUL.0>
0

>  <SCORE.INTRA.VDW>
-0.0844658

>  <SCORE.INTRA.VDW.0>
-1.48073

>  <SCORE.INTRA.norm>
-0.00318353

>  <SCORE.RESTR>
0

>  <SCORE.RESTR.CAVITY>
0

>  <SCORE.RESTR.norm>
0

>  <SCORE.SYSTEM>
0

>  <SCORE.SYSTEM.CONST>
0

>  <SCORE.SYSTEM.DIHEDRAL>
0

>  <SCORE.SYSTEM.norm>
0

>  <SCORE.heavy>
24

>  <SCORE.norm>
-0.784375

$$$$
design_1
 OpenBabel05252019093D

 23 24  0  0  0  0  0  0  0  0999 V2000
   40.6588  -38.7214    2.0382 N   0  0  0  0  0  0  0  0  0  0  0  0
   40.4614  -37.4747    3.2391 S   0  0  0  0  0  0  0  0  0  0  0  0
   39.2255  -36.7018    2.8701 O   0  0  0  0  0  0  0  0  0  0  0  0
   41.6425  -36.5484    3.2390 O   0  0  0  0  0  0  0  0  0  0  0  0
   40.2841  -38.2772    4.7818 C   0  0  0  0  0  0  0  0  0  0  0  0
   40.0214  -37.5786    5.9422 C   0  0  0  0  0  0  0  0  0  0  0  0
   39.8765  -38.1601    7.1606 C   0  0  0  0  0  0  0  0  0  0  0  0
   39.9899  -39.5413    7.3046 C   0  0  0  0  0  0  0  0  0  0  0  0
   39.8150  -40.1164    8.5777 N   0  0  0  0  0  0  0  0  0  0  0  0
   39.9714  -41.4625    8.8874 C   0  0  0  0  0  0  0  0  0  0  0  0
   40.2910  -42.3805    8.1211 O   0  0  0  0  0  0  0  0  0  0  0  0
   39.7277  -41.8761   10.3219 C   0  0  0  0  0  0  0  0  0  0  0  0
   39.4135  -43.3344   10.3556 C   0  0  0  0  0  0  0  0  0  0  0  0
   40.7506  -44.0780   10.4663 C   0  0  0  0  0  0  0  0  0  0  0  0
   40.3675  -45.8425   10.5859 S   0  0  0  0  0  0  0  0  0  0  0  0
   39.8539  -46.4580    8.9778 C   0  0  0  0  0  0  0  0  0  0  0  0
   40.7928  -46.6892    8.0026 C   0  0  0  0  0  0  0  0  0  0  0  0
   40.4016  -47.1639    6.7609 C   0  0  0  0  0  0  0  0  0  0  0  0
   39.0594  -47.3939    6.5373 C   0  0  0  0  0  0  0  0  0  0  0  0
   38.1301  -47.1559    7.5289 C   0  0  0  0  0  0  0  0  0  0  0  0
   38.5002  -46.6836    8.7707 C   0  0  0  0  0  0  0  0  0  0  0  0
   40.2494  -40.2721    6.1792 C   0  0  0  0  0  0  0  0  0  0  0  0
   40.3938  -39.6378    4.9343 C   0  0  0  0  0  0  0  0  0  0  0  0
  1  2  1  0  0  0  0
  2  3  2  0  0  0  0
  2  4  2  0  0  0  0
  2  5  1  0  0  0  0
  5  6  2  0  0  0  0
  6  7  1  0  0  0  0
  7  8  2  0  0  0  0
  8  9  1  0  0  0  0
  8 22  1  0  0  0  0
  9 10  1  0  0  0  0
 10 11  2  0  0  0  0
 10 12  1  0  0  0  0
 12 13  1  0  0  0  0
 13 14  1  0  0  0  0
 14 15  1  0  0  0  0
 15 16  1  0  0  0  0
 16 17  2  0  0  0  0
 17 18  1  0  0  0  0
 18 19  2  0  0  0  0
 19 20  1  0  0  0  0
 20 21  2  0  0  0  0
 21 16  1  0  0  0  0
 22 23  2  0  0  0  0
 23  5  1  0  0  0  0
M  END
>  <CHROM.1>
47.30549609,-175.72905918,-176.17670386,157.96285671,87.87550353,177.38833870
74.15576710,76.23462739,40.05093562,-41.75938437,6.94433069,0.66696499,-1.49477745
-1.46216721

>  <Name>
design_1

>  <RI>
0

>  <Rbt.Current_Directory>
/home/ziqiaoxu/icml18-jtnn/VAEdesign

>  <Rbt.Executable>
rbdock ($Id: //depot/dev/client3/rdock/2013.1/src/exe/rbdock.cxx#4 $)

>  <Rbt.Library>
libRbt.so (2013.1, Build901 2013/11/27)

>  <Rbt.Parameter_File>
/export/apps/rDock/src/rDock_2013.1_src//data/scripts/dock.prm

>  <Rbt.Receptor>
/home/ziqiaoxu/icml18-jtnn/VAEdesign/targets/RdRp-SARS-CoV-2/pocket_docking.prm

>  <SCORE>
-22.0338

>  <SCORE.INTER>
-20.9203

>  <SCORE.INTER.CONST>
1

>  <SCORE.INTER.POLAR>
-2.48035

>  <SCORE.INTER.REPUL>
0

>  <SCORE.INTER.ROT>
8

>  <SCORE.INTER.VDW>
-25.8871

>  <SCORE.INTER.norm>
-0.90958

>  <SCORE.INTRA>
-1.32645

>  <SCORE.INTRA.DIHEDRAL>
1.67826

>  <SCORE.INTRA.DIHEDRAL.0>
6.06629

>  <SCORE.INTRA.POLAR>
0

>  <SCORE.INTRA.POLAR.0>
0

>  <SCORE.INTRA.REPUL>
0

>  <SCORE.INTRA.REPUL.0>
0

>  <SCORE.INTRA.VDW>
-2.16558

>  <SCORE.INTRA.VDW.0>
2.20235

>  <SCORE.INTRA.norm>
-0.057672

>  <SCORE.RESTR>
0.212955

>  <SCORE.RESTR.CAVITY>
0.212955

>  <SCORE.RESTR.norm>
0.00925891

>  <SCORE.SYSTEM>
0

>  <SCORE.SYSTEM.CONST>
0

>  <SCORE.SYSTEM.DIHEDRAL>
0

>  <SCORE.SYSTEM.norm>
0

>  <SCORE.heavy>
23

>  <SCORE.norm>
-0.957993

$$$$
design_13
 OpenBabel05252019093D

 23 25  0  0  0  0  0  0  0  0999 V2000
   47.8595  -47.6354    1.8348 C   0  0  0  0  0  0  0  0  0  0  0  0
   47.3293  -46.9378    0.7477 O   0  0  0  0  0  0  0  0  0  0  0  0
   45.9933  -46.5698    0.6363 C   0  0  0  0  0  0  0  0  0  0  0  0
   45.3728  -46.4974   -0.5786 C   0  0  0  0  0  0  0  0  0  0  0  0
   44.0499  -46.1253   -0.6026 C   0  0  0  0  0  0  0  0  0  0  0  0
   43.3162  -45.8212    0.5376 C   0  0  0  0  0  0  0  0  0  0  0  0
   43.9444  -45.8967    1.7543 C   0  0  0  0  0  0  0  0  0  0  0  0
   43.3193  -45.6450    2.9785 N   0  0  0  0  0  0  0  0  0  0  0  0
   43.9567  -45.4486    4.2395 C   0  0  0  0  0  0  0  0  0  0  0  0
   45.1979  -45.4975    4.2461 O   0  0  0  0  0  0  0  0  0  0  0  0
   43.1842  -45.2041    5.4489 C   0  0  0  0  0  0  0  0  0  0  0  0
   43.7155  -45.4551    6.7758 C   0  0  0  0  0  0  0  0  0  0  0  0
   42.8452  -45.2643    7.9095 N   0  0  0  0  0  0  0  0  0  0  0  0
   43.1524  -44.4025    8.9134 N   0  0  0  0  0  0  0  0  0  0  0  0
   42.2402  -44.4322    9.8686 C   0  0  0  0  0  0  0  0  0  0  0  0
   41.2711  -45.3521    9.4978 C   0  0  0  0  0  0  0  0  0  0  0  0
   40.0906  -45.7597   10.1026 C   0  0  0  0  0  0  0  0  0  0  0  0
   39.3100  -46.6815    9.4601 C   0  0  0  0  0  0  0  0  0  0  0  0
   39.7284  -47.1658    8.2410 C   0  0  0  0  0  0  0  0  0  0  0  0
   38.8846  -48.1717    7.5282 C   0  0  0  0  0  0  0  0  0  0  0  0
   40.8743  -46.7799    7.6406 C   0  0  0  0  0  0  0  0  0  0  0  0
   41.6946  -45.8465    8.2624 C   0  0  0  0  0  0  0  0  0  0  0  0
   45.3021  -46.2785    1.7729 C   0  0  0  0  0  0  0  0  0  0  0  0
  1  2  1  0  0  0  0
  2  3  1  0  0  0  0
  3  4  2  0  0  0  0
  4  5  1  0  0  0  0
  5  6  2  0  0  0  0
  6  7  1  0  0  0  0
  7  8  1  0  0  0  0
  7 23  2  0  0  0  0
  8  9  1  0  0  0  0
  9 10  2  0  0  0  0
  9 11  1  0  0  0  0
 11 12  1  0  0  0  0
 12 13  1  0  0  0  0
 13 14  1  0  0  0  0
 14 15  2  0  0  0  0
 15 16  1  0  0  0  0
 16 17  2  0  0  0  0
 17 18  1  0  0  0  0
 18 19  2  0  0  0  0
 19 20  1  0  0  0  0
 19 21  1  0  0  0  0
 21 22  2  0  0  0  0
 22 13  1  0  0  0  0
 22 16  1  0  0  0  0
 23  3  1  0  0  0  0
M  END
>  <CHROM.1>
-147.97254947,-166.75019930,158.14190840,-176.05156596,-122.17552013,43.22670612
-46.05035550,5.04835003,-1.00899546,0.29778899,1.33075349

>  <Name>
design_13

>  <RI>
0

>  <Rbt.Current_Directory>
/home/ziqiaoxu/icml18-jtnn/VAEdesign

>  <Rbt.Executable>
rbdock ($Id: //depot/dev/client3/rdock/2013.1/src/exe/rbdock.cxx#4 $)

>  <Rbt.Library>
libRbt.so (2013.1, Build901 2013/11/27)

>  <Rbt.Parameter_File>
/export/apps/rDock/src/rDock_2013.1_src//data/scripts/dock.prm

>  <Rbt.Receptor>
/home/ziqiaoxu/icml18-jtnn/VAEdesign/targets/RdRp-SARS-CoV-2/pocket_docking.prm

>  <SCORE>
-14.0182

>  <SCORE.INTER>
-15.4854

>  <SCORE.INTER.CONST>
1

>  <SCORE.INTER.POLAR>
0

>  <SCORE.INTER.REPUL>
0

>  <SCORE.INTER.ROT>
5

>  <SCORE.INTER.VDW>
-25.8854

>  <SCORE.INTER.norm>
-0.67328

>  <SCORE.INTRA>
1.46722

>  <SCORE.INTRA.DIHEDRAL>
0.148489

>  <SCORE.INTRA.DIHEDRAL.0>
5.99786

>  <SCORE.INTRA.POLAR>
0

>  <SCORE.INTRA.POLAR.0>
0

>  <SCORE.INTRA.REPUL>
0

>  <SCORE.INTRA.REPUL.0>
0

>  <SCORE.INTRA.VDW>
1.39297

>  <SCORE.INTRA.VDW.0>
0.300201

>  <SCORE.INTRA.norm>
0.063792

>  <SCORE.RESTR>
0

>  <SCORE.RESTR.CAVITY>
0

>  <SCORE.RESTR.norm>
0

>  <SCORE.SYSTEM>
0

>  <SCORE.SYSTEM.CONST>
0

>  <SCORE.SYSTEM.DIHEDRAL>
0

>  <SCORE.SYSTEM.norm>
0

>  <SCORE.heavy>
23

>  <SCORE.norm>
-0.609488

$$$$
design_1
 OpenBabel05252019093D

 26 28  0  0  0  0  0  0  0  0999 V2000
   45.4178  -45.2469   -0.3223 C   0  0  0  0  0  0  0  0  0  0  0  0
   44.9528  -46.4748    0.4749 C   0  0  0  0  0  0  0  0  0  0  0  0
   45.2562  -46.2459    1.8953 N   0  0  0  0  0  0  0  0  0  0  0  0
   46.3504  -46.6654    2.5529 C   0  0  0  0  0  0  0  0  0  0  0  0
   47.4718  -47.4780    1.9437 C   0  0  0  0  0  0  0  0  0  0  0  0
   46.2491  -46.2282    3.8505 C   0  0  0  0  0  0  0  0  0  0  0  0
   45.0382  -45.5143    3.9804 C   0  0  0  0  0  0  0  0  0  0  0  0
   44.5313  -44.9315    5.2060 C   0  0  0  0  0  0  0  0  0  0  0  0
   43.5881  -44.0664    5.1371 O   0  0  0  0  0  0  0  0  0  0  0  0
   45.0423  -45.2791    6.4662 N   0  0  0  0  0  0  0  0  0  0  0  0
   44.5994  -44.7955    7.7410 C   0  0  0  0  0  0  0  0  0  0  0  0
   43.1669  -44.4956    7.7678 C   0  0  0  0  0  0  0  0  0  0  0  0
   42.8771  -43.3356    8.1988 O   0  0  0  0  0  0  0  0  0  0  0  0
   42.1644  -45.3677    7.3760 N   0  0  0  0  0  0  0  0  0  0  0  0
   40.7436  -45.2275    7.3648 C   0  0  2  0  0  0  0  0  0  0  0  0
   40.2112  -44.4376    8.5216 C   0  0  0  0  0  0  0  0  0  0  0  0
   40.2345  -45.2516    9.7864 C   0  0  0  0  0  0  0  0  0  0  0  0
   39.4709  -46.5115    9.7227 C   0  0  0  0  0  0  0  0  0  0  0  0
   39.5034  -47.1517    8.3991 C   0  0  0  0  0  0  0  0  0  0  0  0
   38.8884  -48.4017    8.2139 C   0  0  0  0  0  0  0  0  0  0  0  0
   38.8466  -49.0463    7.0141 C   0  0  0  0  0  0  0  0  0  0  0  0
   39.4446  -48.4189    5.9460 C   0  0  0  0  0  0  0  0  0  0  0  0
   40.0533  -47.1988    6.0972 C   0  0  0  0  0  0  0  0  0  0  0  0
   40.0819  -46.5703    7.3196 C   0  0  0  0  0  0  0  0  0  0  0  0
   44.4426  -45.5421    2.7461 C   0  0  0  0  0  0  0  0  0  0  0  0
   43.1606  -44.9227    2.3068 C   0  0  0  0  0  0  0  0  0  0  0  0
  1  2  1  0  0  0  0
  2  3  1  0  0  0  0
  3  4  1  0  0  0  0
  4  5  1  0  0  0  0
  4  6  2  0  0  0  0
  6  7  1  0  0  0  0
  7  8  1  0  0  0  0
  7 25  2  0  0  0  0
  8  9  2  0  0  0  0
  8 10  1  0  0  0  0
 10 11  1  0  0  0  0
 11 12  1  0  0  0  0
 12 13  2  0  0  0  0
 12 14  1  0  0  0  0
 15 14  1  1  0  0  0
 15 16  1  0  0  0  0
 16 17  1  0  0  0  0
 17 18  1  0  0  0  0
 18 19  1  0  0  0  0
 19 20  2  0  0  0  0
 20 21  1  0  0  0  0
 21 22  2  0  0  0  0
 22 23  1  0  0  0  0
 23 24  2  0  0  0  0
 24 15  1  0  0  0  0
 24 19  1  0  0  0  0
 25 26  1  0  0  0  0
 25  3  1  0  0  0  0
M  END
>  <CHROM.1>
-95.30613882,164.57016060,31.97648150,-128.21603540,-36.01497715,42.81001151
-45.90904753,5.57916375,0.66707723,-0.56511726,-2.09982548

>  <Name>
design_1

>  <RI>
0

>  <Rbt.Current_Directory>
/home/ziqiaoxu/icml18-jtnn/VAEdesign

>  <Rbt.Executable>
rbdock ($Id: //depot/dev/client3/rdock/2013.1/src/exe/rbdock.cxx#4 $)

>  <Rbt.Library>
libRbt.so (2013.1, Build901 2013/11/27)

>  <Rbt.Parameter_File>
/export/apps/rDock/src/rDock_2013.1_src//data/scripts/dock.prm

>  <Rbt.Receptor>
/home/ziqiaoxu/icml18-jtnn/VAEdesign/targets/RdRp-SARS-CoV-2/pocket_docking.prm

>  <SCORE>
-18.713

>  <SCORE.INTER>
-18.5233

>  <SCORE.INTER.CONST>
1

>  <SCORE.INTER.POLAR>
-0.894427

>  <SCORE.INTER.REPUL>
0

>  <SCORE.INTER.ROT>
5

>  <SCORE.INTER.VDW>
-25.8822

>  <SCORE.INTER.norm>
-0.712433

>  <SCORE.INTRA>
-0.189719

>  <SCORE.INTRA.DIHEDRAL>
-2.33011

>  <SCORE.INTRA.DIHEDRAL.0>
9.50177

>  <SCORE.INTRA.POLAR>
0

>  <SCORE.INTRA.POLAR.0>
0

>  <SCORE.INTRA.REPUL>
0

>  <SCORE.INTRA.REPUL.0>
0

>  <SCORE.INTRA.VDW>
0.975337

>  <SCORE.INTRA.VDW.0>
-2.53773

>  <SCORE.INTRA.norm>
-0.00729688

>  <SCORE.RESTR>
0

>  <SCORE.RESTR.CAVITY>
0

>  <SCORE.RESTR.norm>
0

>  <SCORE.SYSTEM>
0

>  <SCORE.SYSTEM.CONST>
0

>  <SCORE.SYSTEM.DIHEDRAL>
0

>  <SCORE.SYSTEM.norm>
0

>  <SCORE.heavy>
26

>  <SCORE.norm>
-0.71973

$$$$
design_4
 OpenBabel05252019093D

 24 26  0  0  0  0  0  0  0  0999 V2000
   39.9082  -46.2745   10.6649 N   0  0  0  0  0  0  0  0  0  0  0  0
   39.7584  -46.1627    8.9636 S   0  0  0  0  0  0  0  0  0  0  0  0
   38.6789  -45.2065    8.5628 O   0  0  0  0  0  0  0  0  0  0  0  0
   39.4862  -47.5479    8.4140 O   0  0  0  0  0  0  0  0  0  0  0  0
   41.3036  -45.6703    8.2902 C   0  0  0  0  0  0  0  0  0  0  0  0
   41.7095  -46.1269    7.0511 C   0  0  0  0  0  0  0  0  0  0  0  0
   42.9134  -45.7799    6.4683 C   0  0  0  0  0  0  0  0  0  0  0  0
   43.7743  -44.9191    7.1669 C   0  0  0  0  0  0  0  0  0  0  0  0
   45.0863  -44.5363    6.6285 C   0  0  0  0  0  0  0  0  0  0  0  0
   45.5974  -45.5064    5.6687 N   0  0  0  0  0  0  0  0  0  0  0  0
   45.5945  -45.1893    4.3033 C   0  0  0  0  0  0  0  0  0  0  0  0
   45.1197  -44.0675    3.9480 O   0  0  0  0  0  0  0  0  0  0  0  0
   46.0807  -46.0341    3.2211 C   0  0  0  0  0  0  0  0  0  0  0  0
   47.2009  -46.8422    3.3982 C   0  0  0  0  0  0  0  0  0  0  0  0
   47.7420  -47.5582    2.3660 C   0  0  0  0  0  0  0  0  0  0  0  0
   47.1978  -47.5078    1.1150 C   0  0  0  0  0  0  0  0  0  0  0  0
   46.0627  -46.7003    0.9081 C   0  0  0  0  0  0  0  0  0  0  0  0
   45.5348  -46.6824   -0.3809 C   0  0  0  0  0  0  0  0  0  0  0  0
   44.4291  -45.9299   -0.6562 C   0  0  0  0  0  0  0  0  0  0  0  0
   43.8825  -45.2125    0.3759 C   0  0  0  0  0  0  0  0  0  0  0  0
   44.4059  -45.2297    1.6572 C   0  0  0  0  0  0  0  0  0  0  0  0
   45.5281  -45.9829    1.9596 C   0  0  0  0  0  0  0  0  0  0  0  0
   43.3665  -44.4719    8.3908 C   0  0  0  0  0  0  0  0  0  0  0  0
   42.1527  -44.8248    8.9709 C   0  0  0  0  0  0  0  0  0  0  0  0
  1  2  1  0  0  0  0
  2  3  2  0  0  0  0
  2  4  2  0  0  0  0
  2  5  1  0  0  0  0
  5  6  2  0  0  0  0
  6  7  1  0  0  0  0
  7  8  2  0  0  0  0
  8  9  1  0  0  0  0
  8 23  1  0  0  0  0
  9 10  1  0  0  0  0
 10 11  1  0  0  0  0
 11 12  2  0  0  0  0
 11 13  1  0  0  0  0
 13 14  2  0  0  0  0
 14 15  1  0  0  0  0
 15 16  2  0  0  0  0
 16 17  1  0  0  0  0
 17 18  2  0  0  0  0
 18 19  1  0  0  0  0
 19 20  2  0  0  0  0
 20 21  1  0  0  0  0
 21 22  2  0  0  0  0
 22 13  1  0  0  0  0
 22 17  1  0  0  0  0
 23 24  2  0  0  0  0
 24  5  1  0  0  0  0
M  END
>  <CHROM.1>
160.73420501,146.60259230,-23.55895715,106.38191164,-36.22869241,43.51662934
-45.84876748,5.25087996,-2.21376485,-0.12873454,-1.71322214

>  <Name>
design_4

>  <RI>
0

>  <Rbt.Current_Directory>
/home/ziqiaoxu/icml18-jtnn/VAEdesign

>  <Rbt.Executable>
rbdock ($Id: //depot/dev/client3/rdock/2013.1/src/exe/rbdock.cxx#4 $)

>  <Rbt.Library>
libRbt.so (2013.1, Build901 2013/11/27)

>  <Rbt.Parameter_File>
/export/apps/rDock/src/rDock_2013.1_src//data/scripts/dock.prm

>  <Rbt.Receptor>
/home/ziqiaoxu/icml18-jtnn/VAEdesign/targets/RdRp-SARS-CoV-2/pocket_docking.prm

>  <SCORE>
-27.0893

>  <SCORE.INTER>
-25.9625

>  <SCORE.INTER.CONST>
1

>  <SCORE.INTER.POLAR>
-3.0826

>  <SCORE.INTER.REPUL>
0

>  <SCORE.INTER.ROT>
5

>  <SCORE.INTER.VDW>
-25.8817

>  <SCORE.INTER.norm>
-1.08177

>  <SCORE.INTRA>
-1.12674

>  <SCORE.INTRA.DIHEDRAL>
-4.57157

>  <SCORE.INTRA.DIHEDRAL.0>
12.4263

>  <SCORE.INTRA.POLAR>
0

>  <SCORE.INTRA.POLAR.0>
0

>  <SCORE.INTRA.REPUL>
0

>  <SCORE.INTRA.REPUL.0>
0

>  <SCORE.INTRA.VDW>
1.15905

>  <SCORE.INTRA.VDW.0>
-2.42168

>  <SCORE.INTRA.norm>
-0.0469474

>  <SCORE.RESTR>
0

>  <SCORE.RESTR.CAVITY>
0

>  <SCORE.RESTR.norm>
0

>  <SCORE.SYSTEM>
0

>  <SCORE.SYSTEM.CONST>
0

>  <SCORE.SYSTEM.DIHEDRAL>
0

>  <SCORE.SYSTEM.norm>
0

>  <SCORE.heavy>
24

>  <SCORE.norm>
-1.12872

$$$$
design_13
 OpenBabel05252019093D

 24 27  0  0  0  0  0  0  0  0999 V2000
   40.1021  -37.0995    2.5601 C   0  0  0  0  0  0  0  0  0  0  0  0
   39.8760  -37.2789    4.0096 C   0  0  0  0  0  0  0  0  0  0  0  0
   39.4168  -36.3597    4.8535 N   0  0  0  0  0  0  0  0  0  0  0  0
   39.3533  -36.9074    6.0758 N   0  0  0  0  0  0  0  0  0  0  0  0
   39.7754  -38.1879    6.0133 C   0  0  0  0  0  0  0  0  0  0  0  0
   39.8435  -39.1109    7.1728 C   0  0  2  0  0  0  0  0  0  0  0  0
   40.8631  -40.1861    6.9823 C   0  0  0  0  0  0  0  0  0  0  0  0
   41.0072  -40.9571    8.1790 N   0  0  0  0  0  0  0  0  0  0  0  0
   40.9408  -42.3899    7.8667 C   0  0  0  0  0  0  0  0  0  0  0  0
   42.0349  -43.1529    8.5304 C   0  0  0  0  0  0  0  0  0  0  0  0
   41.6096  -44.1539    9.5509 C   0  0  0  0  0  0  0  0  0  0  0  0
   40.9007  -45.3339    8.9599 C   0  0  0  0  0  0  0  0  0  0  0  0
   41.0189  -45.8926    7.7763 N   0  0  0  0  0  0  0  0  0  0  0  0
   40.2977  -46.9314    7.4512 C   0  0  0  0  0  0  0  0  0  0  0  0
   40.3377  -47.6104    6.2208 C   0  0  0  0  0  0  0  0  0  0  0  0
   39.5256  -48.6896    6.0100 C   0  0  0  0  0  0  0  0  0  0  0  0
   38.6430  -49.1748    6.9456 C   0  0  0  0  0  0  0  0  0  0  0  0
   38.5963  -48.5181    8.1518 C   0  0  0  0  0  0  0  0  0  0  0  0
   39.4230  -47.4070    8.3877 C   0  0  0  0  0  0  0  0  0  0  0  0
   39.6877  -46.3301    9.6869 S   0  0  0  0  0  0  0  0  0  0  0  0
   39.9733  -40.6920    9.1579 C   0  0  0  0  0  0  0  0  0  0  0  0
   38.6464  -40.5508    8.4879 C   0  0  0  0  0  0  0  0  0  0  0  0
   38.6133  -39.6865    7.4252 O   0  0  0  0  0  0  0  0  0  0  0  0
   40.0914  -38.3932    4.7328 N   0  0  0  0  0  0  0  0  0  0  0  0
  1  2  1  0  0  0  0
  2  3  2  0  0  0  0
  3  4  1  0  0  0  0
  4  5  1  0  0  0  0
  5 24  2  0  0  0  0
  6  5  1  6  0  0  0
  6  7  1  0  0  0  0
  7  8  1  0  0  0  0
  8  9  1  0  0  0  0
  8 21  1  0  0  0  0
  9 10  1  0  0  0  0
 10 11  1  0  0  0  0
 11 12  1  0  0  0  0
 12 13  2  0  0  0  0
 13 14  1  0  0  0  0
 14 15  2  0  0  0  0
 15 16  1  0  0  0  0
 16 17  2  0  0  0  0
 17 18  1  0  0  0  0
 18 19  2  0  0  0  0
 19 20  1  0  0  0  0
 19 14  1  0  0  0  0
 20 12  1  0  0  0  0
 21 22  1  0  0  0  0
 22 23  1  0  0  0  0
 23  6  1  0  0  0  0
 24  2  1  0  0  0  0
M  END
>  <CHROM.1>
-154.39578911,133.01831228,115.50900631,69.23598176,29.18336166,40.00398149
-42.61662342,7.26311586,1.59664970,-1.39184604,-0.23999673

>  <Name>
design_13

>  <RI>
0

>  <Rbt.Current_Directory>
/home/ziqiaoxu/icml18-jtnn/VAEdesign

>  <Rbt.Executable>
rbdock ($Id: //depot/dev/client3/rdock/2013.1/src/exe/rbdock.cxx#4 $)

>  <Rbt.Library>
libRbt.so (2013.1, Build901 2013/11/27)

>  <Rbt.Parameter_File>
/export/apps/rDock/src/rDock_2013.1_src//data/scripts/dock.prm

>  <Rbt.Receptor>
/home/ziqiaoxu/icml18-jtnn/VAEdesign/targets/RdRp-SARS-CoV-2/pocket_docking.prm

>  <SCORE>
-15.7567

>  <SCORE.INTER>
-18.4753

>  <SCORE.INTER.CONST>
1

>  <SCORE.INTER.POLAR>
-1.02733

>  <SCORE.INTER.REPUL>
0.0990173

>  <SCORE.INTER.ROT>
5

>  <SCORE.INTER.VDW>
-25.8774

>  <SCORE.INTER.norm>
-0.769803

>  <SCORE.INTRA>
2.67774

>  <SCORE.INTRA.DIHEDRAL>
7.63577

>  <SCORE.INTRA.DIHEDRAL.0>
2.56051

>  <SCORE.INTRA.POLAR>
0

>  <SCORE.INTRA.POLAR.0>
0

>  <SCORE.INTRA.REPUL>
0

>  <SCORE.INTRA.REPUL.0>
0

>  <SCORE.INTRA.VDW>
-1.14015

>  <SCORE.INTRA.VDW.0>
-0.30759

>  <SCORE.INTRA.norm>
0.111572

>  <SCORE.RESTR>
0.0408511

>  <SCORE.RESTR.CAVITY>
0.0408511

>  <SCORE.RESTR.norm>
0.00170213

>  <SCORE.SYSTEM>
0

>  <SCORE.SYSTEM.CONST>
0

>  <SCORE.SYSTEM.DIHEDRAL>
0

>  <SCORE.SYSTEM.norm>
0

>  <SCORE.heavy>
24

>  <SCORE.norm>
-0.656529

$$$$
design_7
 OpenBabel05252019093D

 25 28  0  0  0  0  0  0  0  0999 V2000
   47.6594  -45.8733    0.7005 C   0  0  0  0  0  0  0  0  0  0  0  0
   46.2166  -46.0205    0.4028 C   0  0  0  0  0  0  0  0  0  0  0  0
   45.8309  -46.8619   -0.6300 C   0  0  0  0  0  0  0  0  0  0  0  0
   44.4894  -47.0169   -0.9283 C   0  0  0  0  0  0  0  0  0  0  0  0
   43.5454  -46.3197   -0.1798 C   0  0  0  0  0  0  0  0  0  0  0  0
   43.9432  -45.4892    0.8410 C   0  0  0  0  0  0  0  0  0  0  0  0
   42.9017  -44.7641    1.6143 C   0  0  0  0  0  0  0  0  0  0  0  0
   42.1537  -45.2170    2.6018 N   0  0  0  0  0  0  0  0  0  0  0  0
   41.2889  -44.4400    3.1662 C   0  0  0  0  0  0  0  0  0  0  0  0
   40.4174  -44.8859    4.2807 C   0  0  0  0  0  0  0  0  0  0  0  0
   39.9225  -44.0805    5.0988 O   0  0  0  0  0  0  0  0  0  0  0  0
   40.1250  -46.2590    4.4401 N   0  0  0  0  0  0  0  0  0  0  0  0
   39.2852  -46.7719    5.4993 C   0  0  0  0  0  0  0  0  0  0  0  0
   40.1361  -47.4456    6.5625 C   0  0  2  0  0  0  0  0  0  0  0  0
   39.3960  -47.5779    7.8655 C   0  0  0  0  0  0  0  0  0  0  0  0
   40.0679  -46.5910    8.7388 C   0  0  0  0  0  0  0  0  0  0  0  0
   39.7811  -46.1075   10.0104 C   0  0  0  0  0  0  0  0  0  0  0  0
   40.5733  -45.1756   10.6189 C   0  0  0  0  0  0  0  0  0  0  0  0
   41.6908  -44.7015    9.9504 C   0  0  0  0  0  0  0  0  0  0  0  0
   41.9836  -45.1728    8.6928 C   0  0  0  0  0  0  0  0  0  0  0  0
   41.1676  -46.1164    8.0952 C   0  0  0  0  0  0  0  0  0  0  0  0
   41.2880  -46.7091    6.8535 O   0  0  0  0  0  0  0  0  0  0  0  0
   41.1939  -43.1496    2.6934 C   0  0  0  0  0  0  0  0  0  0  0  0
   42.3702  -43.1489    1.4562 S   0  0  0  0  0  0  0  0  0  0  0  0
   45.2624  -45.3429    1.1271 C   0  0  0  0  0  0  0  0  0  0  0  0
  1  2  1  0  0  0  0
  2  3  2  0  0  0  0
  3  4  1  0  0  0  0
  4  5  2  0  0  0  0
  5  6  1  0  0  0  0
  6  7  1  0  0  0  0
  6 25  2  0  0  0  0
  7  8  2  0  0  0  0
  8  9  1  0  0  0  0
  9 10  1  0  0  0  0
  9 23  2  0  0  0  0
 10 11  2  0  0  0  0
 10 12  1  0  0  0  0
 12 13  1  0  0  0  0
 14 13  1  6  0  0  0
 14 15  1  0  0  0  0
 15 16  1  0  0  0  0
 16 17  2  0  0  0  0
 17 18  1  0  0  0  0
 18 19  2  0  0  0  0
 19 20  1  0  0  0  0
 20 21  2  0  0  0  0
 21 22  1  0  0  0  0
 21 16  1  0  0  0  0
 22 14  1  0  0  0  0
 23 24  1  0  0  0  0
 24  7  1  0  0  0  0
 25  2  1  0  0  0  0
M  END
>  <CHROM.1>
80.65440540,155.95147986,-105.14657665,160.87527895,42.09874820,-45.52715893
4.24656189,-1.01795990,-0.46202303,1.89570401

>  <Name>
design_7

>  <RI>
0

>  <Rbt.Current_Directory>
/home/ziqiaoxu/icml18-jtnn/VAEdesign

>  <Rbt.Executable>
rbdock ($Id: //depot/dev/client3/rdock/2013.1/src/exe/rbdock.cxx#4 $)

>  <Rbt.Library>
libRbt.so (2013.1, Build901 2013/11/27)

>  <Rbt.Parameter_File>
/export/apps/rDock/src/rDock_2013.1_src//data/scripts/dock.prm

>  <Rbt.Receptor>
/home/ziqiaoxu/icml18-jtnn/VAEdesign/targets/RdRp-SARS-CoV-2/pocket_docking.prm

>  <SCORE>
-13.2488

>  <SCORE.INTER>
-19.9509

>  <SCORE.INTER.CONST>
1

>  <SCORE.INTER.POLAR>
-1.08514

>  <SCORE.INTER.REPUL>
0.0425427

>  <SCORE.INTER.ROT>
4

>  <SCORE.INTER.VDW>
-25.8742

>  <SCORE.INTER.norm>
-0.798037

>  <SCORE.INTRA>
6.70216

>  <SCORE.INTRA.DIHEDRAL>
15.5664

>  <SCORE.INTRA.DIHEDRAL.0>
1.21718

>  <SCORE.INTRA.POLAR>
0

>  <SCORE.INTRA.POLAR.0>
0

>  <SCORE.INTRA.REPUL>
0

>  <SCORE.INTRA.REPUL.0>
0

>  <SCORE.INTRA.VDW>
-1.08106

>  <SCORE.INTRA.VDW.0>
-1.26593

>  <SCORE.INTRA.norm>
0.268086

>  <SCORE.RESTR>
0

>  <SCORE.RESTR.CAVITY>
0

>  <SCORE.RESTR.norm>
0

>  <SCORE.SYSTEM>
0

>  <SCORE.SYSTEM.CONST>
0

>  <SCORE.SYSTEM.DIHEDRAL>
0

>  <SCORE.SYSTEM.norm>
0

>  <SCORE.heavy>
25

>  <SCORE.norm>
-0.529951

$$$$
design_14
 OpenBabel05252019093D

 24 26  0  0  0  0  0  0  0  0999 V2000
   47.8897  -47.7883    0.8106 C   0  0  0  0  0  0  0  0  0  0  0  0
   46.7727  -46.9833    1.3802 C   0  0  0  0  0  0  0  0  0  0  0  0
   45.7650  -46.4734    0.5743 C   0  0  0  0  0  0  0  0  0  0  0  0
   44.7496  -45.7343    1.1350 C   0  0  0  0  0  0  0  0  0  0  0  0
   43.6669  -45.1857    0.2742 C   0  0  0  0  0  0  0  0  0  0  0  0
   44.7222  -45.4906    2.5125 C   0  0  0  0  0  0  0  0  0  0  0  0
   45.7243  -45.9970    3.3226 C   0  0  0  0  0  0  0  0  0  0  0  0
   45.8021  -45.8473    4.7129 N   0  0  0  0  0  0  0  0  0  0  0  0
   45.1462  -44.8691    5.4665 C   0  0  0  0  0  0  0  0  0  0  0  0
   44.4014  -44.0215    4.9233 O   0  0  0  0  0  0  0  0  0  0  0  0
   45.3104  -44.7968    6.9649 C   0  0  0  0  0  0  0  0  0  0  0  0
   43.9943  -44.9384    7.6391 C   0  0  0  0  0  0  0  0  0  0  0  0
   43.5145  -44.1887    8.7186 C   0  0  0  0  0  0  0  0  0  0  0  0
   42.3128  -44.6324    9.0071 O   0  0  0  0  0  0  0  0  0  0  0  0
   41.9621  -45.6066    8.2125 C   0  0  0  0  0  0  0  0  0  0  0  0
   40.6814  -46.3401    8.2490 C   0  0  0  0  0  0  0  0  0  0  0  0
   39.7219  -45.9914    9.1772 C   0  0  0  0  0  0  0  0  0  0  0  0
   38.5065  -46.6394    9.2601 C   0  0  0  0  0  0  0  0  0  0  0  0
   38.2850  -47.6630    8.3668 C   0  0  0  0  0  0  0  0  0  0  0  0
   39.2000  -48.0617    7.4153 C   0  0  0  0  0  0  0  0  0  0  0  0
   38.9396  -49.1704    6.4601 C   0  0  0  0  0  0  0  0  0  0  0  0
   40.4108  -47.3602    7.3888 C   0  0  0  0  0  0  0  0  0  0  0  0
   42.9914  -45.7972    7.3717 N   0  0  0  0  0  0  0  0  0  0  0  0
   46.7414  -46.7438    2.7201 C   0  0  0  0  0  0  0  0  0  0  0  0
  1  2  1  0  0  0  0
  2  3  2  0  0  0  0
  3  4  1  0  0  0  0
  4  5  1  0  0  0  0
  4  6  2  0  0  0  0
  6  7  1  0  0  0  0
  7  8  1  0  0  0  0
  7 24  2  0  0  0  0
  8  9  1  0  0  0  0
  9 10  2  0  0  0  0
  9 11  1  0  0  0  0
 11 12  1  0  0  0  0
 12 13  2  0  0  0  0
 13 14  1  0  0  0  0
 14 15  1  0  0  0  0
 15 16  1  0  0  0  0
 15 23  2  0  0  0  0
 16 17  2  0  0  0  0
 17 18  1  0  0  0  0
 18 19  2  0  0  0  0
 19 20  1  0  0  0  0
 20 21  1  0  0  0  0
 20 22  2  0  0  0  0
 22 16  1  0  0  0  0
 23 12  1  0  0  0  0
 24  2  1  0  0  0  0
M  END
>  <CHROM.1>
-20.15940898,-120.97860493,-136.65918625,1.02219664,43.24117820,-46.08435676
5.48440424,0.71648538,-0.47935501,-1.99642242

>  <Name>
design_14

>  <RI>
0

>  <Rbt.Current_Directory>
/home/ziqiaoxu/icml18-jtnn/VAEdesign

>  <Rbt.Executable>
rbdock ($Id: //depot/dev/client3/rdock/2013.1/src/exe/rbdock.cxx#4 $)

>  <Rbt.Library>
libRbt.so (2013.1, Build901 2013/11/27)

>  <Rbt.Parameter_File>
/export/apps/rDock/src/rDock_2013.1_src//data/scripts/dock.prm

>  <Rbt.Receptor>
/home/ziqiaoxu/icml18-jtnn/VAEdesign/targets/RdRp-SARS-CoV-2/pocket_docking.prm

>  <SCORE>
-20.4223

>  <SCORE.INTER>
-19.4034

>  <SCORE.INTER.CONST>
1

>  <SCORE.INTER.POLAR>
-0.86197

>  <SCORE.INTER.REPUL>
0

>  <SCORE.INTER.ROT>
4

>  <SCORE.INTER.VDW>
-25.8727

>  <SCORE.INTER.norm>
-0.808474

>  <SCORE.INTRA>
-1.01898

>  <SCORE.INTRA.DIHEDRAL>
-1.01979

>  <SCORE.INTRA.DIHEDRAL.0>
4.25657

>  <SCORE.INTRA.POLAR>
0

>  <SCORE.INTRA.POLAR.0>
0

>  <SCORE.INTRA.REPUL>
0

>  <SCORE.INTRA.REPUL.0>
0

>  <SCORE.INTRA.VDW>
-0.509082

>  <SCORE.INTRA.VDW.0>
-0.793637

>  <SCORE.INTRA.norm>
-0.0424574

>  <SCORE.RESTR>
0

>  <SCORE.RESTR.CAVITY>
0

>  <SCORE.RESTR.norm>
0

>  <SCORE.SYSTEM>
0

>  <SCORE.SYSTEM.CONST>
0

>  <SCORE.SYSTEM.DIHEDRAL>
0

>  <SCORE.SYSTEM.norm>
0

>  <SCORE.heavy>
24

>  <SCORE.norm>
-0.850931

$$$$
design_2
 OpenBabel05252019093D

 26 29  0  0  0  0  0  0  0  0999 V2000
   38.5377  -49.0297    6.5218 C   0  0  0  0  0  0  0  0  0  0  0  0
   38.9277  -48.0473    7.5659 C   0  0  0  0  0  0  0  0  0  0  0  0
   38.1860  -47.6531    8.6298 N   0  0  0  0  0  0  0  0  0  0  0  0
   38.8729  -46.7698    9.3272 N   0  0  0  0  0  0  0  0  0  0  0  0
   40.0631  -46.5604    8.7546 C   0  0  0  0  0  0  0  0  0  0  0  0
   41.1358  -45.6687    9.1864 C   0  0  0  0  0  0  0  0  0  0  0  0
   41.1067  -45.0111   10.3951 C   0  0  0  0  0  0  0  0  0  0  0  0
   42.1223  -44.1729   10.7935 C   0  0  0  0  0  0  0  0  0  0  0  0
   43.1967  -43.9983    9.9404 C   0  0  0  0  0  0  0  0  0  0  0  0
   43.2751  -44.6361    8.7137 C   0  0  0  0  0  0  0  0  0  0  0  0
   44.4634  -44.3915    7.8524 C   0  0  0  0  0  0  0  0  0  0  0  0
   44.1776  -44.4138    6.4499 N   0  0  0  0  0  0  0  0  0  0  0  0
   45.1183  -44.8472    5.4558 C   0  0  0  0  0  0  0  0  0  0  0  0
   46.2421  -45.2215    5.8698 O   0  0  0  0  0  0  0  0  0  0  0  0
   44.7459  -44.8407    4.0048 C   0  0  2  0  0  0  0  0  0  0  0  0
   43.3905  -45.5398    3.9315 C   0  0  0  0  0  0  0  0  0  0  0  0
   42.8761  -45.5363    2.6179 O   0  0  0  0  0  0  0  0  0  0  0  0
   43.7930  -45.7996    1.5877 C   0  0  0  0  0  0  0  0  0  0  0  0
   43.2378  -46.0159    0.3385 C   0  0  0  0  0  0  0  0  0  0  0  0
   44.0933  -46.2776   -0.7033 C   0  0  0  0  0  0  0  0  0  0  0  0
   45.4477  -46.3184   -0.4905 C   0  0  0  0  0  0  0  0  0  0  0  0
   45.9993  -46.1032    0.7515 C   0  0  0  0  0  0  0  0  0  0  0  0
   45.1502  -45.8349    1.8284 C   0  0  0  0  0  0  0  0  0  0  0  0
   45.7361  -45.6005    3.1785 C   0  0  0  0  0  0  0  0  0  0  0  0
   42.2290  -45.4611    8.3717 C   0  0  0  0  0  0  0  0  0  0  0  0
   40.0777  -47.3596    7.6671 N   0  0  0  0  0  0  0  0  0  0  0  0
  1  2  1  0  0  0  0
  2  3  2  0  0  0  0
  3  4  1  0  0  0  0
  4  5  1  0  0  0  0
  5  6  1  0  0  0  0
  5 26  2  0  0  0  0
  6  7  2  0  0  0  0
  7  8  1  0  0  0  0
  8  9  2  0  0  0  0
  9 10  1  0  0  0  0
 10 11  1  0  0  0  0
 10 25  2  0  0  0  0
 11 12  1  0  0  0  0
 12 13  1  0  0  0  0
 13 14  2  0  0  0  0
 15 13  1  1  0  0  0
 15 16  1  0  0  0  0
 16 17  1  0  0  0  0
 17 18  1  0  0  0  0
 18 19  2  0  0  0  0
 19 20  1  0  0  0  0
 20 21  2  0  0  0  0
 21 22  1  0  0  0  0
 22 23  2  0  0  0  0
 23 24  1  0  0  0  0
 23 18  1  0  0  0  0
 24 15  1  0  0  0  0
 25  6  1  0  0  0  0
 26  2  1  0  0  0  0
M  END
>  <CHROM.1>
8.16769363,-146.56227194,-148.63593240,-49.07744778,42.76509338,-45.82034753
5.71768582,2.16540496,0.50554388,1.30104828

>  <Name>
design_2

>  <RI>
0

>  <Rbt.Current_Directory>
/home/ziqiaoxu/icml18-jtnn/VAEdesign

>  <Rbt.Executable>
rbdock ($Id: //depot/dev/client3/rdock/2013.1/src/exe/rbdock.cxx#4 $)

>  <Rbt.Library>
libRbt.so (2013.1, Build901 2013/11/27)

>  <Rbt.Parameter_File>
/export/apps/rDock/src/rDock_2013.1_src//data/scripts/dock.prm

>  <Rbt.Receptor>
/home/ziqiaoxu/icml18-jtnn/VAEdesign/targets/RdRp-SARS-CoV-2/pocket_docking.prm

>  <SCORE>
-17.9827

>  <SCORE.INTER>
-19.8894

>  <SCORE.INTER.CONST>
1

>  <SCORE.INTER.POLAR>
-1.0198

>  <SCORE.INTER.REPUL>
0.0101186

>  <SCORE.INTER.ROT>
4

>  <SCORE.INTER.VDW>
-25.8726

>  <SCORE.INTER.norm>
-0.764976

>  <SCORE.INTRA>
1.90671

>  <SCORE.INTRA.DIHEDRAL>
0.5567

>  <SCORE.INTRA.DIHEDRAL.0>
2.46638

>  <SCORE.INTRA.POLAR>
0

>  <SCORE.INTRA.POLAR.0>
0

>  <SCORE.INTRA.REPUL>
0

>  <SCORE.INTRA.REPUL.0>
0

>  <SCORE.INTRA.VDW>
1.62836

>  <SCORE.INTRA.VDW.0>
-2.10005

>  <SCORE.INTRA.norm>
0.0733348

>  <SCORE.RESTR>
0

>  <SCORE.RESTR.CAVITY>
0

>  <SCORE.RESTR.norm>
0

>  <SCORE.SYSTEM>
0

>  <SCORE.SYSTEM.CONST>
0

>  <SCORE.SYSTEM.DIHEDRAL>
0

>  <SCORE.SYSTEM.norm>
0

>  <SCORE.heavy>
26

>  <SCORE.norm>
-0.691641

$$$$
design_7
 OpenBabel05252019093D

 25 27  0  0  0  0  0  0  0  0999 V2000
   40.9579  -45.5564    8.2267 O   0  0  0  0  0  0  0  0  0  0  0  0
   40.2255  -45.8201    9.2054 C   0  0  0  0  0  0  0  0  0  0  0  0
   39.6519  -47.2073    9.2636 C   0  0  0  0  0  0  0  0  0  0  0  0
   39.1974  -47.5728    7.9023 C   0  0  0  0  0  0  0  0  0  0  0  0
   39.5512  -48.6767    7.1447 C   0  0  0  0  0  0  0  0  0  0  0  0
   38.9022  -48.6000    5.9841 N   0  0  0  0  0  0  0  0  0  0  0  0
   38.1352  -47.5064    5.9255 C   0  0  0  0  0  0  0  0  0  0  0  0
   37.2856  -46.9561    4.9956 C   0  0  0  0  0  0  0  0  0  0  0  0
   36.6171  -45.7797    5.2368 C   0  0  0  0  0  0  0  0  0  0  0  0
   36.8123  -45.1495    6.4410 C   0  0  0  0  0  0  0  0  0  0  0  0
   37.6531  -45.6684    7.3949 C   0  0  0  0  0  0  0  0  0  0  0  0
   38.3075  -46.8487    7.1214 C   0  0  0  0  0  0  0  0  0  0  0  0
   39.9221  -44.8941   10.2320 N   0  0  0  0  0  0  0  0  0  0  0  0
   40.4418  -43.5592   10.2097 C   0  0  0  0  0  0  0  0  0  0  0  0
   39.3518  -42.5891   10.5907 C   0  0  0  0  0  0  0  0  0  0  0  0
   39.5139  -41.3788    9.7814 N   0  0  0  0  0  0  0  0  0  0  0  0
   39.3609  -41.3482    8.3819 C   0  0  0  0  0  0  0  0  0  0  0  0
   39.0608  -42.3797    7.7282 O   0  0  0  0  0  0  0  0  0  0  0  0
   39.5430  -40.1256    7.6412 C   0  0  0  0  0  0  0  0  0  0  0  0
   38.9556  -39.9862    6.4063 C   0  0  0  0  0  0  0  0  0  0  0  0
   39.1296  -38.8176    5.6807 C   0  0  0  0  0  0  0  0  0  0  0  0
   39.8920  -37.8164    6.2171 C   0  0  0  0  0  0  0  0  0  0  0  0
   40.0963  -36.3481    5.2785 Cl  0  0  0  0  0  0  0  0  0  0  0  0
   40.4950  -37.9132    7.4428 C   0  0  0  0  0  0  0  0  0  0  0  0
   40.2994  -39.1062    8.1495 C   0  0  0  0  0  0  0  0  0  0  0  0
  1  2  2  0  0  0  0
  2  3  1  0  0  0  0
  2 13  1  0  0  0  0
  3  4  1  0  0  0  0
  4  5  2  0  0  0  0
  5  6  1  0  0  0  0
  6  7  1  0  0  0  0
  7  8  2  0  0  0  0
  8  9  1  0  0  0  0
  9 10  2  0  0  0  0
 10 11  1  0  0  0  0
 11 12  2  0  0  0  0
 12  4  1  0  0  0  0
 12  7  1  0  0  0  0
 13 14  1  0  0  0  0
 14 15  1  0  0  0  0
 15 16  1  0  0  0  0
 16 17  1  0  0  0  0
 17 18  2  0  0  0  0
 17 19  1  0  0  0  0
 19 20  2  0  0  0  0
 20 21  1  0  0  0  0
 21 22  2  0  0  0  0
 22 23  1  0  0  0  0
 22 24  1  0  0  0  0
 24 25  2  0  0  0  0
 25 19  1  0  0  0  0
M  END
>  <CHROM.1>
-42.50897870,124.78256344,136.66618733,-142.90887507,65.18501983,-157.20279979
39.25448269,-43.08649512,7.45038379,-1.86446661,-1.14070206,-0.35334907

>  <Name>
design_7

>  <RI>
0

>  <Rbt.Current_Directory>
/home/ziqiaoxu/icml18-jtnn/VAEdesign

>  <Rbt.Executable>
rbdock ($Id: //depot/dev/client3/rdock/2013.1/src/exe/rbdock.cxx#4 $)

>  <Rbt.Library>
libRbt.so (2013.1, Build901 2013/11/27)

>  <Rbt.Parameter_File>
/export/apps/rDock/src/rDock_2013.1_src//data/scripts/dock.prm

>  <Rbt.Receptor>
/home/ziqiaoxu/icml18-jtnn/VAEdesign/targets/RdRp-SARS-CoV-2/pocket_docking.prm

>  <SCORE>
-24.3894

>  <SCORE.INTER>
-24.7616

>  <SCORE.INTER.CONST>
1

>  <SCORE.INTER.POLAR>
-3.02667

>  <SCORE.INTER.REPUL>
0

>  <SCORE.INTER.ROT>
6

>  <SCORE.INTER.VDW>
-25.871

>  <SCORE.INTER.norm>
-0.990466

>  <SCORE.INTRA>
0.372241

>  <SCORE.INTRA.DIHEDRAL>
3.96862

>  <SCORE.INTRA.DIHEDRAL.0>
5.53497

>  <SCORE.INTRA.POLAR>
0

>  <SCORE.INTRA.POLAR.0>
0

>  <SCORE.INTRA.REPUL>
0

>  <SCORE.INTRA.REPUL.0>
0

>  <SCORE.INTRA.VDW>
-1.61207

>  <SCORE.INTRA.VDW.0>
0.0688997

>  <SCORE.INTRA.norm>
0.0148896

>  <SCORE.RESTR>
0

>  <SCORE.RESTR.CAVITY>
0

>  <SCORE.RESTR.norm>
0

>  <SCORE.SYSTEM>
0

>  <SCORE.SYSTEM.CONST>
0

>  <SCORE.SYSTEM.DIHEDRAL>
0

>  <SCORE.SYSTEM.norm>
0

>  <SCORE.heavy>
25

>  <SCORE.norm>
-0.975576

$$$$
design_0
 OpenBabel05252019093D

 25 27  0  0  0  0  0  0  0  0999 V2000
   43.4874  -45.9221   -0.8045 N   0  0  0  0  0  0  0  0  0  0  0  0
   44.6829  -46.4256   -0.2507 C   0  0  0  0  0  0  0  0  0  0  0  0
   45.4992  -47.0680   -0.9687 O   0  0  0  0  0  0  0  0  0  0  0  0
   44.9689  -46.1962    1.1659 C   0  0  0  0  0  0  0  0  0  0  0  0
   46.0740  -46.7607    1.7517 C   0  0  0  0  0  0  0  0  0  0  0  0
   46.3565  -46.5451    3.1142 C   0  0  0  0  0  0  0  0  0  0  0  0
   45.5041  -45.7632    3.8325 C   0  0  0  0  0  0  0  0  0  0  0  0
   45.6901  -45.5134    5.2055 N   0  0  0  0  0  0  0  0  0  0  0  0
   45.3435  -44.2933    5.8107 C   0  0  0  0  0  0  0  0  0  0  0  0
   44.8616  -43.3571    5.1731 O   0  0  0  0  0  0  0  0  0  0  0  0
   45.5773  -44.1595    7.2642 C   0  0  0  0  0  0  0  0  0  0  0  0
   44.5536  -44.9309    8.0339 C   0  0  0  0  0  0  0  0  0  0  0  0
   43.2266  -44.2717    7.9754 C   0  0  0  0  0  0  0  0  0  0  0  0
   42.1635  -45.2932    7.8718 N   0  0  0  0  0  0  0  0  0  0  0  0
   41.2669  -45.6208    8.7765 N   0  0  0  0  0  0  0  0  0  0  0  0
   40.4646  -46.5961    8.3188 C   0  0  0  0  0  0  0  0  0  0  0  0
   39.3898  -47.3045    8.8167 C   0  0  0  0  0  0  0  0  0  0  0  0
   38.7309  -48.2838    8.1092 C   0  0  0  0  0  0  0  0  0  0  0  0
   39.1855  -48.5546    6.8385 C   0  0  0  0  0  0  0  0  0  0  0  0
   40.2587  -47.8387    6.3570 C   0  0  0  0  0  0  0  0  0  0  0  0
   40.8908  -46.8862    7.0599 N   0  0  0  0  0  0  0  0  0  0  0  0
   41.9460  -46.0647    6.8052 C   0  0  0  0  0  0  0  0  0  0  0  0
   42.6125  -46.0363    5.7328 O   0  0  0  0  0  0  0  0  0  0  0  0
   44.3748  -45.1915    3.2144 C   0  0  0  0  0  0  0  0  0  0  0  0
   44.0954  -45.3967    1.8925 C   0  0  0  0  0  0  0  0  0  0  0  0
  1  2  1  0  0  0  0
  2  3  2  0  0  0  0
  2  4  1  0  0  0  0
  4  5  2  0  0  0  0
  5  6  1  0  0  0  0
  6  7  2  0  0  0  0
  7  8  1  0  0  0  0
  7 24  1  0  0  0  0
  8  9  1  0  0  0  0
  9 10  2  0  0  0  0
  9 11  1  0  0  0  0
 11 12  1  0  0  0  0
 12 13  1  0  0  0  0
 13 14  1  0  0  0  0
 14 15  1  0  0  0  0
 15 16  2  0  0  0  0
 16 17  1  0  0  0  0
 17 18  2  0  0  0  0
 18 19  1  0  0  0  0
 19 20  2  0  0  0  0
 20 21  1  0  0  0  0
 21 22  1  0  0  0  0
 21 16  1  0  0  0  0
 22 23  2  0  0  0  0
 22 14  1  0  0  0  0
 24 25  2  0  0  0  0
 25  4  1  0  0  0  0
M  END
>  <CHROM.1>
175.06693247,146.25051700,-74.62965750,-72.13996883,141.90537598,110.82239923
43.27651183,-45.98231257,5.04908586,0.91077973,-0.53068078,-1.86729517

>  <Name>
design_0

>  <RI>
0

>  <Rbt.Current_Directory>
/home/ziqiaoxu/icml18-jtnn/VAEdesign

>  <Rbt.Executable>
rbdock ($Id: //depot/dev/client3/rdock/2013.1/src/exe/rbdock.cxx#4 $)

>  <Rbt.Library>
libRbt.so (2013.1, Build901 2013/11/27)

>  <Rbt.Parameter_File>
/export/apps/rDock/src/rDock_2013.1_src//data/scripts/dock.prm

>  <Rbt.Receptor>
/home/ziqiaoxu/icml18-jtnn/VAEdesign/targets/RdRp-SARS-CoV-2/pocket_docking.prm

>  <SCORE>
-20.5039

>  <SCORE.INTER>
-20.7694

>  <SCORE.INTER.CONST>
1

>  <SCORE.INTER.POLAR>
-1.85359

>  <SCORE.INTER.REPUL>
0

>  <SCORE.INTER.ROT>
6

>  <SCORE.INTER.VDW>
-25.8672

>  <SCORE.INTER.norm>
-0.830777

>  <SCORE.INTRA>
0.26556

>  <SCORE.INTRA.DIHEDRAL>
6.16917

>  <SCORE.INTRA.DIHEDRAL.0>
6.16445

>  <SCORE.INTRA.POLAR>
0

>  <SCORE.INTRA.POLAR.0>
0

>  <SCORE.INTRA.REPUL>
0

>  <SCORE.INTRA.REPUL.0>
0

>  <SCORE.INTRA.VDW>
-2.81903

>  <SCORE.INTRA.VDW.0>
1.37792

>  <SCORE.INTRA.norm>
0.0106224

>  <SCORE.RESTR>
0

>  <SCORE.RESTR.CAVITY>
0

>  <SCORE.RESTR.norm>
0

>  <SCORE.SYSTEM>
0

>  <SCORE.SYSTEM.CONST>
0

>  <SCORE.SYSTEM.DIHEDRAL>
0

>  <SCORE.SYSTEM.norm>
0

>  <SCORE.heavy>
25

>  <SCORE.norm>
-0.820154

$$$$
design_0
 OpenBabel05252019093D

 24 26  0  0  0  0  0  0  0  0999 V2000
   40.2476  -46.1954   10.5730 N   0  0  0  0  0  0  0  0  0  0  0  0
   41.1948  -45.5856    9.7262 C   0  0  0  0  0  0  0  0  0  0  0  0
   41.8995  -44.6832   10.2486 O   0  0  0  0  0  0  0  0  0  0  0  0
   41.3192  -46.0061    8.3402 C   0  0  0  0  0  0  0  0  0  0  0  0
   42.1924  -45.6119    7.3632 C   0  0  0  0  0  0  0  0  0  0  0  0
   43.3111  -44.6813    7.5083 C   0  0  0  0  0  0  0  0  0  0  0  0
   44.6543  -45.2322    7.1260 C   0  0  0  0  0  0  0  0  0  0  0  0
   44.9479  -44.7959    5.7267 C   0  0  0  0  0  0  0  0  0  0  0  0
   44.4572  -43.7222    5.2945 O   0  0  0  0  0  0  0  0  0  0  0  0
   45.7920  -45.6153    4.8860 N   0  0  0  0  0  0  0  0  0  0  0  0
   46.0391  -45.1512    3.5632 C   0  0  0  0  0  0  0  0  0  0  0  0
   46.6504  -46.1250    2.6624 C   0  0  0  0  0  0  0  0  0  0  0  0
   47.6977  -46.8922    3.1242 C   0  0  0  0  0  0  0  0  0  0  0  0
   48.3226  -47.8228    2.3218 C   0  0  0  0  0  0  0  0  0  0  0  0
   47.9089  -48.0099    1.0211 C   0  0  0  0  0  0  0  0  0  0  0  0
   46.8874  -47.2555    0.5843 N   0  0  0  0  0  0  0  0  0  0  0  0
   46.2775  -46.3561    1.3479 C   0  0  0  0  0  0  0  0  0  0  0  0
   41.8331  -46.2900    6.2450 N   0  0  0  0  0  0  0  0  0  0  0  0
   40.7911  -47.0850    6.4601 C   0  0  0  0  0  0  0  0  0  0  0  0
   40.1023  -47.9474    5.6100 C   0  0  0  0  0  0  0  0  0  0  0  0
   39.0404  -48.6745    6.0740 C   0  0  0  0  0  0  0  0  0  0  0  0
   38.6911  -48.5183    7.3924 C   0  0  0  0  0  0  0  0  0  0  0  0
   39.3747  -47.6554    8.2573 C   0  0  0  0  0  0  0  0  0  0  0  0
   40.4365  -46.9334    7.7776 C   0  0  0  0  0  0  0  0  0  0  0  0
  1  2  1  0  0  0  0
  2  3  2  0  0  0  0
  2  4  1  0  0  0  0
  4  5  2  0  0  0  0
  5  6  1  0  0  0  0
  5 18  1  0  0  0  0
  6  7  1  0  0  0  0
  7  8  1  0  0  0  0
  8  9  2  0  0  0  0
  8 10  1  0  0  0  0
 10 11  1  0  0  0  0
 11 12  1  0  0  0  0
 12 13  2  0  0  0  0
 13 14  1  0  0  0  0
 14 15  2  0  0  0  0
 15 16  1  0  0  0  0
 16 17  2  0  0  0  0
 17 12  1  0  0  0  0
 18 19  1  0  0  0  0
 19 20  2  0  0  0  0
 20 21  1  0  0  0  0
 21 22  2  0  0  0  0
 22 23  1  0  0  0  0
 23 24  2  0  0  0  0
 24  4  1  0  0  0  0
 24 19  1  0  0  0  0
M  END
>  <CHROM.1>
-176.57101150,122.75483264,97.49771606,28.51468767,-167.59454989,-44.14943393
43.35242952,-46.32314272,5.84310327,-2.55168775,-0.49374092,-2.19531864

>  <Name>
design_0

>  <RI>
0

>  <Rbt.Current_Directory>
/home/ziqiaoxu/icml18-jtnn/VAEdesign

>  <Rbt.Executable>
rbdock ($Id: //depot/dev/client3/rdock/2013.1/src/exe/rbdock.cxx#4 $)

>  <Rbt.Library>
libRbt.so (2013.1, Build901 2013/11/27)

>  <Rbt.Parameter_File>
/export/apps/rDock/src/rDock_2013.1_src//data/scripts/dock.prm

>  <Rbt.Receptor>
/home/ziqiaoxu/icml18-jtnn/VAEdesign/targets/RdRp-SARS-CoV-2/pocket_docking.prm

>  <SCORE>
-22.3915

>  <SCORE.INTER>
-23.1972

>  <SCORE.INTER.CONST>
1

>  <SCORE.INTER.POLAR>
-3.04952

>  <SCORE.INTER.REPUL>
0.327448

>  <SCORE.INTER.ROT>
6

>  <SCORE.INTER.VDW>
-25.866

>  <SCORE.INTER.norm>
-0.966549

>  <SCORE.INTRA>
0.805686

>  <SCORE.INTRA.DIHEDRAL>
2.29839

>  <SCORE.INTRA.DIHEDRAL.0>
5.18239

>  <SCORE.INTRA.POLAR>
0

>  <SCORE.INTRA.POLAR.0>
0

>  <SCORE.INTRA.REPUL>
0

>  <SCORE.INTRA.REPUL.0>
0

>  <SCORE.INTRA.VDW>
-0.343507

>  <SCORE.INTRA.VDW.0>
-0.684987

>  <SCORE.INTRA.norm>
0.0335702

>  <SCORE.RESTR>
0

>  <SCORE.RESTR.CAVITY>
0

>  <SCORE.RESTR.norm>
0

>  <SCORE.SYSTEM>
0

>  <SCORE.SYSTEM.CONST>
0

>  <SCORE.SYSTEM.DIHEDRAL>
0

>  <SCORE.SYSTEM.norm>
0

>  <SCORE.heavy>
24

>  <SCORE.norm>
-0.932978

$$$$
design_12
 OpenBabel05252019093D

 25 28  0  0  0  0  0  0  0  0999 V2000
   38.4967  -49.1136    6.6981 C   0  0  0  0  0  0  0  0  0  0  0  0
   38.9004  -48.0731    7.6745 C   0  0  0  0  0  0  0  0  0  0  0  0
   38.1574  -47.5989    8.6869 N   0  0  0  0  0  0  0  0  0  0  0  0
   38.8898  -46.7045    9.2910 N   0  0  0  0  0  0  0  0  0  0  0  0
   40.0838  -46.5967    8.6875 C   0  0  0  0  0  0  0  0  0  0  0  0
   41.1671  -45.7039    9.0802 C   0  0  0  0  0  0  0  0  0  0  0  0
   41.1366  -45.0314   10.2863 C   0  0  0  0  0  0  0  0  0  0  0  0
   42.1783  -44.1839   10.6371 C   0  0  0  0  0  0  0  0  0  0  0  0
   43.2686  -43.9878    9.7990 C   0  0  0  0  0  0  0  0  0  0  0  0
   43.2894  -44.6629    8.5998 C   0  0  0  0  0  0  0  0  0  0  0  0
   44.4385  -44.4678    7.6879 C   0  0  0  0  0  0  0  0  0  0  0  0
   44.0409  -44.6799    6.3203 N   0  0  0  0  0  0  0  0  0  0  0  0
   44.9478  -45.1521    5.3501 C   0  0  0  0  0  0  0  0  0  0  0  0
   46.1363  -45.3892    5.7073 O   0  0  0  0  0  0  0  0  0  0  0  0
   44.6175  -45.3870    3.9691 C   0  0  0  0  0  0  0  0  0  0  0  0
   43.3503  -45.2379    3.4583 C   0  0  0  0  0  0  0  0  0  0  0  0
   42.9826  -45.4420    2.1716 C   0  0  0  0  0  0  0  0  0  0  0  0
   43.9537  -45.8465    1.2259 C   0  0  0  0  0  0  0  0  0  0  0  0
   43.7553  -46.0783   -0.0353 N   0  0  0  0  0  0  0  0  0  0  0  0
   44.7558  -46.4514   -0.8133 C   0  0  0  0  0  0  0  0  0  0  0  0
   46.0675  -46.4824    0.2866 S   0  0  0  0  0  0  0  0  0  0  0  0
   45.2261  -46.0026    1.7097 C   0  0  0  0  0  0  0  0  0  0  0  0
   45.5787  -45.7843    3.0484 C   0  0  0  0  0  0  0  0  0  0  0  0
   42.2448  -45.5150    8.2442 C   0  0  0  0  0  0  0  0  0  0  0  0
   40.1110  -47.4673    7.6465 N   0  0  0  0  0  0  0  0  0  0  0  0
  1  2  1  0  0  0  0
  2  3  2  0  0  0  0
  3  4  1  0  0  0  0
  4  5  1  0  0  0  0
  5  6  1  0  0  0  0
  5 25  2  0  0  0  0
  6  7  2  0  0  0  0
  7  8  1  0  0  0  0
  8  9  2  0  0  0  0
  9 10  1  0  0  0  0
 10 11  1  0  0  0  0
 10 24  2  0  0  0  0
 11 12  1  0  0  0  0
 12 13  1  0  0  0  0
 13 14  2  0  0  0  0
 13 15  1  0  0  0  0
 15 16  2  0  0  0  0
 16 17  1  0  0  0  0
 17 18  2  0  0  0  0
 18 19  1  0  0  0  0
 19 20  2  0  0  0  0
 20 21  1  0  0  0  0
 21 22  1  0  0  0  0
 22 23  2  0  0  0  0
 22 18  1  0  0  0  0
 23 15  1  0  0  0  0
 24  6  1  0  0  0  0
 25  2  1  0  0  0  0
M  END
>  <CHROM.1>
11.48073871,-152.32976790,-150.73888336,-3.42679638,42.86707029,-45.92921492
5.54664494,2.18700736,0.50368365,1.26694301

>  <Name>
design_12

>  <RI>
0

>  <Rbt.Current_Directory>
/home/ziqiaoxu/icml18-jtnn/VAEdesign

>  <Rbt.Executable>
rbdock ($Id: //depot/dev/client3/rdock/2013.1/src/exe/rbdock.cxx#4 $)

>  <Rbt.Library>
libRbt.so (2013.1, Build901 2013/11/27)

>  <Rbt.Parameter_File>
/export/apps/rDock/src/rDock_2013.1_src//data/scripts/dock.prm

>  <Rbt.Receptor>
/home/ziqiaoxu/icml18-jtnn/VAEdesign/targets/RdRp-SARS-CoV-2/pocket_docking.prm

>  <SCORE>
-19.5443

>  <SCORE.INTER>
-19.9241

>  <SCORE.INTER.CONST>
1

>  <SCORE.INTER.POLAR>
-1.0198

>  <SCORE.INTER.REPUL>
0

>  <SCORE.INTER.ROT>
4

>  <SCORE.INTER.VDW>
-25.8568

>  <SCORE.INTER.norm>
-0.796965

>  <SCORE.INTRA>
0.379772

>  <SCORE.INTRA.DIHEDRAL>
0.51518

>  <SCORE.INTRA.DIHEDRAL.0>
1.97005

>  <SCORE.INTRA.POLAR>
0

>  <SCORE.INTRA.POLAR.0>
0

>  <SCORE.INTRA.REPUL>
0

>  <SCORE.INTRA.REPUL.0>
0

>  <SCORE.INTRA.VDW>
0.122182

>  <SCORE.INTRA.VDW.0>
-0.762019

>  <SCORE.INTRA.norm>
0.0151909

>  <SCORE.RESTR>
0

>  <SCORE.RESTR.CAVITY>
0

>  <SCORE.RESTR.norm>
0

>  <SCORE.SYSTEM>
0

>  <SCORE.SYSTEM.CONST>
0

>  <SCORE.SYSTEM.DIHEDRAL>
0

>  <SCORE.SYSTEM.norm>
0

>  <SCORE.heavy>
25

>  <SCORE.norm>
-0.781774

$$$$
design_0
 OpenBabel05252019093D

 24 26  0  0  0  0  0  0  0  0999 V2000
   40.0837  -46.0913   10.8750 N   0  0  0  0  0  0  0  0  0  0  0  0
   39.7605  -45.6096    9.2279 S   0  0  0  0  0  0  0  0  0  0  0  0
   38.7985  -46.6279    8.6768 O   0  0  0  0  0  0  0  0  0  0  0  0
   39.1095  -44.2659    9.2155 O   0  0  0  0  0  0  0  0  0  0  0  0
   41.2483  -45.5656    8.3150 C   0  0  0  0  0  0  0  0  0  0  0  0
   41.2811  -46.0342    7.0265 C   0  0  0  0  0  0  0  0  0  0  0  0
   42.4411  -46.0009    6.3093 C   0  0  0  0  0  0  0  0  0  0  0  0
   43.6512  -45.4935    6.8372 C   0  0  0  0  0  0  0  0  0  0  0  0
   44.8102  -45.4919    6.0658 N   0  0  0  0  0  0  0  0  0  0  0  0
   45.0125  -44.9161    4.8415 C   0  0  0  0  0  0  0  0  0  0  0  0
   44.1362  -44.2833    4.2164 O   0  0  0  0  0  0  0  0  0  0  0  0
   46.3424  -44.9911    4.1108 C   0  0  0  0  0  0  0  0  0  0  0  0
   46.6970  -46.3856    3.7174 C   0  0  0  0  0  0  0  0  0  0  0  0
   46.5616  -46.6382    2.2752 C   0  0  0  0  0  0  0  0  0  0  0  0
   47.5100  -47.1540    1.3931 C   0  0  0  0  0  0  0  0  0  0  0  0
   46.9973  -47.2341    0.1545 N   0  0  0  0  0  0  0  0  0  0  0  0
   45.7138  -46.7803    0.1798 C   0  0  0  0  0  0  0  0  0  0  0  0
   44.7797  -46.6665   -0.8397 C   0  0  0  0  0  0  0  0  0  0  0  0
   43.5530  -46.1590   -0.4660 C   0  0  0  0  0  0  0  0  0  0  0  0
   43.2613  -45.7863    0.8280 C   0  0  0  0  0  0  0  0  0  0  0  0
   44.2113  -45.9117    1.8186 C   0  0  0  0  0  0  0  0  0  0  0  0
   45.4425  -46.4139    1.4774 C   0  0  0  0  0  0  0  0  0  0  0  0
   43.5704  -45.0415    8.1155 C   0  0  0  0  0  0  0  0  0  0  0  0
   42.3933  -45.0601    8.8840 C   0  0  0  0  0  0  0  0  0  0  0  0
  1  2  1  0  0  0  0
  2  3  2  0  0  0  0
  2  4  2  0  0  0  0
  2  5  1  0  0  0  0
  5  6  2  0  0  0  0
  6  7  1  0  0  0  0
  7  8  2  0  0  0  0
  8  9  1  0  0  0  0
  8 23  1  0  0  0  0
  9 10  1  0  0  0  0
 10 11  2  0  0  0  0
 10 12  1  0  0  0  0
 12 13  1  0  0  0  0
 13 14  1  0  0  0  0
 14 15  2  0  0  0  0
 15 16  1  0  0  0  0
 16 17  1  0  0  0  0
 17 18  2  0  0  0  0
 18 19  1  0  0  0  0
 19 20  2  0  0  0  0
 20 21  1  0  0  0  0
 21 22  2  0  0  0  0
 22 14  1  0  0  0  0
 22 17  1  0  0  0  0
 23 24  2  0  0  0  0
 24  5  1  0  0  0  0
M  END
>  <CHROM.1>
58.57966333,139.25774694,56.88517326,65.10952580,107.00950430,126.49215475
43.34560666,-45.83403644,5.08162138,-2.16048430,-0.05199527,-1.71264666

>  <Name>
design_0

>  <RI>
0

>  <Rbt.Current_Directory>
/home/ziqiaoxu/icml18-jtnn/VAEdesign

>  <Rbt.Executable>
rbdock ($Id: //depot/dev/client3/rdock/2013.1/src/exe/rbdock.cxx#4 $)

>  <Rbt.Library>
libRbt.so (2013.1, Build901 2013/11/27)

>  <Rbt.Parameter_File>
/export/apps/rDock/src/rDock_2013.1_src//data/scripts/dock.prm

>  <Rbt.Receptor>
/home/ziqiaoxu/icml18-jtnn/VAEdesign/targets/RdRp-SARS-CoV-2/pocket_docking.prm

>  <SCORE>
-23.0391

>  <SCORE.INTER>
-25.5438

>  <SCORE.INTER.CONST>
1

>  <SCORE.INTER.POLAR>
-3.2609

>  <SCORE.INTER.REPUL>
0

>  <SCORE.INTER.ROT>
6

>  <SCORE.INTER.VDW>
-25.8567

>  <SCORE.INTER.norm>
-1.06432

>  <SCORE.INTRA>
2.50464

>  <SCORE.INTRA.DIHEDRAL>
10.5158

>  <SCORE.INTRA.DIHEDRAL.0>
5.4387

>  <SCORE.INTRA.POLAR>
0

>  <SCORE.INTRA.POLAR.0>
0

>  <SCORE.INTRA.REPUL>
0

>  <SCORE.INTRA.REPUL.0>
0

>  <SCORE.INTRA.VDW>
-2.75327

>  <SCORE.INTRA.VDW.0>
0.205692

>  <SCORE.INTRA.norm>
0.10436

>  <SCORE.RESTR>
0

>  <SCORE.RESTR.CAVITY>
0

>  <SCORE.RESTR.norm>
0

>  <SCORE.SYSTEM>
0

>  <SCORE.SYSTEM.CONST>
0

>  <SCORE.SYSTEM.DIHEDRAL>
0

>  <SCORE.SYSTEM.norm>
0

>  <SCORE.heavy>
24

>  <SCORE.norm>
-0.959963

$$$$
design_4
 OpenBabel05252019093D

 25 27  0  0  0  0  0  0  0  0999 V2000
   42.2926  -44.0286    1.9539 C   0  0  0  0  0  0  0  0  0  0  0  0
   42.5901  -45.4052    1.9012 O   0  0  0  0  0  0  0  0  0  0  0  0
   43.6677  -45.8561    1.1843 C   0  0  0  0  0  0  0  0  0  0  0  0
   43.5056  -46.2048   -0.1436 C   0  0  0  0  0  0  0  0  0  0  0  0
   44.5733  -46.6583   -0.8775 C   0  0  0  0  0  0  0  0  0  0  0  0
   45.7880  -46.7504   -0.2513 C   0  0  0  0  0  0  0  0  0  0  0  0
   45.9870  -46.4043    1.0963 C   0  0  0  0  0  0  0  0  0  0  0  0
   44.9141  -45.9509    1.8258 C   0  0  0  0  0  0  0  0  0  0  0  0
   44.9933  -45.5789    3.1697 N   0  0  0  0  0  0  0  0  0  0  0  0
   46.1424  -45.5709    3.9779 C   0  0  0  0  0  0  0  0  0  0  0  0
   47.2998  -45.8906    3.6551 O   0  0  0  0  0  0  0  0  0  0  0  0
   45.9520  -45.1250    5.3949 C   0  0  0  0  0  0  0  0  0  0  0  0
   44.7066  -45.4863    5.8637 O   0  0  0  0  0  0  0  0  0  0  0  0
   44.2266  -45.1420    7.1058 C   0  0  0  0  0  0  0  0  0  0  0  0
   44.8978  -44.4548    7.8916 O   0  0  0  0  0  0  0  0  0  0  0  0
   42.9043  -45.6014    7.4885 C   0  0  0  0  0  0  0  0  0  0  0  0
   42.0559  -46.4327    6.7774 C   0  0  0  0  0  0  0  0  0  0  0  0
   40.9569  -46.5978    7.4818 N   0  0  0  0  0  0  0  0  0  0  0  0
   39.8224  -47.4031    7.0773 C   0  0  0  0  0  0  0  0  0  0  0  0
   41.0050  -45.9154    8.6547 C   0  0  0  0  0  0  0  0  0  0  0  0
   40.0950  -45.8043    9.6797 C   0  0  0  0  0  0  0  0  0  0  0  0
   40.4207  -45.0291   10.7659 C   0  0  0  0  0  0  0  0  0  0  0  0
   41.6372  -44.3912   10.7976 C   0  0  0  0  0  0  0  0  0  0  0  0
   42.5491  -44.5016    9.7719 C   0  0  0  0  0  0  0  0  0  0  0  0
   42.2477  -45.2810    8.6566 C   0  0  0  0  0  0  0  0  0  0  0  0
  1  2  1  0  0  0  0
  2  3  1  0  0  0  0
  3  4  2  0  0  0  0
  4  5  1  0  0  0  0
  5  6  2  0  0  0  0
  6  7  1  0  0  0  0
  7  8  2  0  0  0  0
  8  9  1  0  0  0  0
  8  3  1  0  0  0  0
  9 10  1  0  0  0  0
 10 11  2  0  0  0  0
 10 12  1  0  0  0  0
 12 13  1  0  0  0  0
 13 14  1  0  0  0  0
 14 15  2  0  0  0  0
 14 16  1  0  0  0  0
 16 17  2  0  0  0  0
 17 18  1  0  0  0  0
 18 19  1  0  0  0  0
 18 20  1  0  0  0  0
 20 21  2  0  0  0  0
 21 22  1  0  0  0  0
 22 23  2  0  0  0  0
 23 24  1  0  0  0  0
 24 25  2  0  0  0  0
 25 16  1  0  0  0  0
 25 20  1  0  0  0  0
M  END
>  <CHROM.1>
-90.57809538,-178.44106795,32.89429139,-176.15601512,0.88255453,4.07852278
43.43615392,-45.64758654,5.20252884,1.17162943,-0.16697751,-1.71257775

>  <Name>
design_4

>  <RI>
0

>  <Rbt.Current_Directory>
/home/ziqiaoxu/icml18-jtnn/VAEdesign

>  <Rbt.Executable>
rbdock ($Id: //depot/dev/client3/rdock/2013.1/src/exe/rbdock.cxx#4 $)

>  <Rbt.Library>
libRbt.so (2013.1, Build901 2013/11/27)

>  <Rbt.Parameter_File>
/export/apps/rDock/src/rDock_2013.1_src//data/scripts/dock.prm

>  <Rbt.Receptor>
/home/ziqiaoxu/icml18-jtnn/VAEdesign/targets/RdRp-SARS-CoV-2/pocket_docking.prm

>  <SCORE>
-15.4494

>  <SCORE.INTER>
-14.4174

>  <SCORE.INTER.CONST>
1

>  <SCORE.INTER.POLAR>
0

>  <SCORE.INTER.REPUL>
0.00746026

>  <SCORE.INTER.ROT>
6

>  <SCORE.INTER.VDW>
-25.8547

>  <SCORE.INTER.norm>
-0.576696

>  <SCORE.INTRA>
-1.03202

>  <SCORE.INTRA.DIHEDRAL>
4.87865

>  <SCORE.INTRA.DIHEDRAL.0>
1.40196

>  <SCORE.INTRA.POLAR>
0.0286388

>  <SCORE.INTRA.POLAR.0>
-0.035061

>  <SCORE.INTRA.REPUL>
0

>  <SCORE.INTRA.REPUL.0>
0

>  <SCORE.INTRA.VDW>
-3.56871

>  <SCORE.INTRA.VDW.0>
2.55584

>  <SCORE.INTRA.norm>
-0.0412808

>  <SCORE.RESTR>
0

>  <SCORE.RESTR.CAVITY>
0

>  <SCORE.RESTR.norm>
0

>  <SCORE.SYSTEM>
0

>  <SCORE.SYSTEM.CONST>
0

>  <SCORE.SYSTEM.DIHEDRAL>
0

>  <SCORE.SYSTEM.norm>
0

>  <SCORE.heavy>
25

>  <SCORE.norm>
-0.617976

$$$$
design_8
 OpenBabel05252019093D

 25 27  0  0  0  0  0  0  0  0999 V2000
   40.0540  -46.3474   10.5212 N   0  0  0  0  0  0  0  0  0  0  0  0
   40.7236  -46.0022    9.2774 C   0  0  0  0  0  0  0  0  0  0  0  0
   41.5671  -45.1240    9.3851 O   0  0  0  0  0  0  0  0  0  0  0  0
   40.3300  -46.7108    8.0984 C   0  0  0  0  0  0  0  0  0  0  0  0
   39.2069  -47.5495    8.1377 C   0  0  0  0  0  0  0  0  0  0  0  0
   38.7649  -48.3045    7.0902 C   0  0  0  0  0  0  0  0  0  0  0  0
   39.4609  -48.2440    5.9164 C   0  0  0  0  0  0  0  0  0  0  0  0
   40.5791  -47.4257    5.8312 C   0  0  0  0  0  0  0  0  0  0  0  0
   41.0316  -46.6492    6.9114 C   0  0  0  0  0  0  0  0  0  0  0  0
   42.1155  -45.8076    6.7229 N   0  0  0  0  0  0  0  0  0  0  0  0
   42.7868  -45.5263    5.5109 C   0  0  0  0  0  0  0  0  0  0  0  0
   42.5394  -45.9854    4.3766 O   0  0  0  0  0  0  0  0  0  0  0  0
   43.9557  -44.5603    5.5189 C   0  0  0  0  0  0  0  0  0  0  0  0
   45.2550  -45.2841    5.5717 C   0  0  0  0  0  0  0  0  0  0  0  0
   45.6848  -45.7427    4.2502 C   0  0  0  0  0  0  0  0  0  0  0  0
   44.8720  -45.6430    3.1912 N   0  0  0  0  0  0  0  0  0  0  0  0
   45.2455  -46.0613    1.9513 C   0  0  0  0  0  0  0  0  0  0  0  0
   44.4041  -45.9518    0.8847 C   0  0  0  0  0  0  0  0  0  0  0  0
   44.7791  -46.3756   -0.3776 C   0  0  0  0  0  0  0  0  0  0  0  0
   46.0408  -46.9160   -0.5221 C   0  0  0  0  0  0  0  0  0  0  0  0
   46.8966  -47.0298    0.5519 C   0  0  0  0  0  0  0  0  0  0  0  0
   46.5048  -46.6023    1.8000 C   0  0  0  0  0  0  0  0  0  0  0  0
   47.3168  -46.6907    2.9093 C   0  0  0  0  0  0  0  0  0  0  0  0
   48.4767  -47.1884    2.7732 O   0  0  0  0  0  0  0  0  0  0  0  0
   46.9145  -46.2694    4.1095 N   0  0  0  0  0  0  0  0  0  0  0  0
  1  2  1  0  0  0  0
  2  3  2  0  0  0  0
  2  4  1  0  0  0  0
  4  5  2  0  0  0  0
  5  6  1  0  0  0  0
  6  7  2  0  0  0  0
  7  8  1  0  0  0  0
  8  9  2  0  0  0  0
  9 10  1  0  0  0  0
  9  4  1  0  0  0  0
 10 11  1  0  0  0  0
 11 12  2  0  0  0  0
 11 13  1  0  0  0  0
 13 14  1  0  0  0  0
 14 15  1  0  0  0  0
 15 16  2  0  0  0  0
 16 17  1  0  0  0  0
 17 18  2  0  0  0  0
 18 19  1  0  0  0  0
 19 20  2  0  0  0  0
 20 21  1  0  0  0  0
 21 22  2  0  0  0  0
 22 23  1  0  0  0  0
 22 17  1  0  0  0  0
 23 24  2  0  0  0  0
 23 25  1  0  0  0  0
 25 15  1  0  0  0  0
M  END
>  <CHROM.1>
9.21622553,-170.52115058,97.77040031,82.34552509,-7.98469532,43.43020858
-46.37897585,4.89280160,-2.35284002,-0.28935197,-1.81802494

>  <Name>
design_8

>  <RI>
0

>  <Rbt.Current_Directory>
/home/ziqiaoxu/icml18-jtnn/VAEdesign

>  <Rbt.Executable>
rbdock ($Id: //depot/dev/client3/rdock/2013.1/src/exe/rbdock.cxx#4 $)

>  <Rbt.Library>
libRbt.so (2013.1, Build901 2013/11/27)

>  <Rbt.Parameter_File>
/export/apps/rDock/src/rDock_2013.1_src//data/scripts/dock.prm

>  <Rbt.Receptor>
/home/ziqiaoxu/icml18-jtnn/VAEdesign/targets/RdRp-SARS-CoV-2/pocket_docking.prm

>  <SCORE>
-24.569

>  <SCORE.INTER>
-24.137

>  <SCORE.INTER.CONST>
1

>  <SCORE.INTER.POLAR>
-2.62804

>  <SCORE.INTER.REPUL>
0.0504178

>  <SCORE.INTER.ROT>
5

>  <SCORE.INTER.VDW>
-25.8538

>  <SCORE.INTER.norm>
-0.965482

>  <SCORE.INTRA>
-0.431956

>  <SCORE.INTRA.DIHEDRAL>
2.56751

>  <SCORE.INTRA.DIHEDRAL.0>
2.69389

>  <SCORE.INTRA.POLAR>
0

>  <SCORE.INTRA.POLAR.0>
0

>  <SCORE.INTRA.REPUL>
0

>  <SCORE.INTRA.REPUL.0>
0

>  <SCORE.INTRA.VDW>
-1.71571

>  <SCORE.INTRA.VDW.0>
1.08539

>  <SCORE.INTRA.norm>
-0.0172782

>  <SCORE.RESTR>
0

>  <SCORE.RESTR.CAVITY>
0

>  <SCORE.RESTR.norm>
0

>  <SCORE.SYSTEM>
0

>  <SCORE.SYSTEM.CONST>
0

>  <SCORE.SYSTEM.DIHEDRAL>
0

>  <SCORE.SYSTEM.norm>
0

>  <SCORE.heavy>
25

>  <SCORE.norm>
-0.98276

$$$$
design_1
 OpenBabel05252019093D

 24 26  0  0  0  0  0  0  0  0999 V2000
   40.1954  -46.0169   10.7794 N   0  0  0  0  0  0  0  0  0  0  0  0
   40.5905  -45.3931    9.2008 S   0  0  0  0  0  0  0  0  0  0  0  0
   39.9212  -44.0940    9.0426 O   0  0  0  0  0  0  0  0  0  0  0  0
   42.1128  -45.2377    9.2301 O   0  0  0  0  0  0  0  0  0  0  0  0
   40.2011  -46.5852    8.0199 C   0  0  0  0  0  0  0  0  0  0  0  0
   39.1973  -47.5004    8.3088 C   0  0  0  0  0  0  0  0  0  0  0  0
   38.8365  -48.4791    7.4066 C   0  0  0  0  0  0  0  0  0  0  0  0
   39.4545  -48.5809    6.1947 C   0  0  0  0  0  0  0  0  0  0  0  0
   40.4700  -47.6639    5.8890 C   0  0  0  0  0  0  0  0  0  0  0  0
   40.8320  -46.6856    6.7894 C   0  0  0  0  0  0  0  0  0  0  0  0
   41.9048  -45.7998    6.5445 N   0  0  0  0  0  0  0  0  0  0  0  0
   42.5663  -45.6773    5.3335 C   0  0  0  0  0  0  0  0  0  0  0  0
   42.1306  -46.4145    4.3580 O   0  0  0  0  0  0  0  0  0  0  0  0
   43.7067  -44.8085    4.9982 C   0  0  0  0  0  0  0  0  0  0  0  0
   44.7112  -45.4554    4.1558 C   0  0  0  0  0  0  0  0  0  0  0  0
   45.8764  -45.9210    4.7433 C   0  0  0  0  0  0  0  0  0  0  0  0
   46.7845  -46.5728    3.9276 C   0  0  0  0  0  0  0  0  0  0  0  0
   46.5867  -46.7749    2.5927 C   0  0  0  0  0  0  0  0  0  0  0  0
   45.4136  -46.3008    2.0184 C   0  0  0  0  0  0  0  0  0  0  0  0
   45.1860  -46.4762    0.6756 C   0  0  0  0  0  0  0  0  0  0  0  0
   44.0214  -45.9984    0.0838 C   0  0  0  0  0  0  0  0  0  0  0  0
   43.1117  -45.3485    0.8688 C   0  0  0  0  0  0  0  0  0  0  0  0
   43.3273  -45.1724    2.1923 C   0  0  0  0  0  0  0  0  0  0  0  0
   44.4890  -45.6461    2.8059 C   0  0  0  0  0  0  0  0  0  0  0  0
  1  2  1  0  0  0  0
  2  3  2  0  0  0  0
  2  4  2  0  0  0  0
  2  5  1  0  0  0  0
  5  6  2  0  0  0  0
  6  7  1  0  0  0  0
  7  8  2  0  0  0  0
  8  9  1  0  0  0  0
  9 10  2  0  0  0  0
 10 11  1  0  0  0  0
 10  5  1  0  0  0  0
 11 12  1  0  0  0  0
 12 13  2  0  0  0  0
 12 14  1  0  0  0  0
 14 15  1  0  0  0  0
 15 16  2  0  0  0  0
 16 17  1  0  0  0  0
 17 18  2  0  0  0  0
 18 19  1  0  0  0  0
 19 20  2  0  0  0  0
 20 21  1  0  0  0  0
 21 22  2  0  0  0  0
 22 23  1  0  0  0  0
 23 24  2  0  0  0  0
 24 15  1  0  0  0  0
 24 19  1  0  0  0  0
M  END
>  <CHROM.1>
42.84388924,26.96340699,-173.85417573,139.15645594,-101.69214412,42.39505918
-46.11775216,5.60344889,-2.26090180,-0.42105465,-1.87038375

>  <Name>
design_1

>  <RI>
0

>  <Rbt.Current_Directory>
/home/ziqiaoxu/icml18-jtnn/VAEdesign

>  <Rbt.Executable>
rbdock ($Id: //depot/dev/client3/rdock/2013.1/src/exe/rbdock.cxx#4 $)

>  <Rbt.Library>
libRbt.so (2013.1, Build901 2013/11/27)

>  <Rbt.Parameter_File>
/export/apps/rDock/src/rDock_2013.1_src//data/scripts/dock.prm

>  <Rbt.Receptor>
/home/ziqiaoxu/icml18-jtnn/VAEdesign/targets/RdRp-SARS-CoV-2/pocket_docking.prm

>  <SCORE>
-25.3708

>  <SCORE.INTER>
-23.666

>  <SCORE.INTER.CONST>
1

>  <SCORE.INTER.POLAR>
-2.41557

>  <SCORE.INTER.REPUL>
0

>  <SCORE.INTER.ROT>
5

>  <SCORE.INTER.VDW>
-25.8531

>  <SCORE.INTER.norm>
-0.986084

>  <SCORE.INTRA>
-1.70477

>  <SCORE.INTRA.DIHEDRAL>
-2.57134

>  <SCORE.INTRA.DIHEDRAL.0>
6.69336

>  <SCORE.INTRA.POLAR>
-0.235802

>  <SCORE.INTRA.POLAR.0>
0

>  <SCORE.INTRA.REPUL>
0

>  <SCORE.INTRA.REPUL.0>
0

>  <SCORE.INTRA.VDW>
0.382629

>  <SCORE.INTRA.VDW.0>
-0.650283

>  <SCORE.INTRA.norm>
-0.0710321

>  <SCORE.RESTR>
0

>  <SCORE.RESTR.CAVITY>
0

>  <SCORE.RESTR.norm>
0

>  <SCORE.SYSTEM>
0

>  <SCORE.SYSTEM.CONST>
0

>  <SCORE.SYSTEM.DIHEDRAL>
0

>  <SCORE.SYSTEM.norm>
0

>  <SCORE.heavy>
24

>  <SCORE.norm>
-1.05712

$$$$
design_7
 OpenBabel05252019093D

 24 27  0  0  0  0  0  0  0  0999 V2000
   40.4579  -42.9243    8.2062 O   0  0  0  0  0  0  0  0  0  0  0  0
   39.9373  -42.5653    9.2927 C   0  0  0  0  0  0  0  0  0  0  0  0
   39.0329  -41.4048    9.2936 C   0  0  0  0  0  0  0  0  0  0  0  0
   39.7095  -40.2243    8.6225 C   0  0  0  0  0  0  0  0  0  0  0  0
   40.5990  -39.4327    9.3095 C   0  0  0  0  0  0  0  0  0  0  0  0
   41.0449  -38.2959    8.1155 S   0  0  0  0  0  0  0  0  0  0  0  0
   40.0886  -38.8830    6.8284 C   0  0  0  0  0  0  0  0  0  0  0  0
   39.9770  -38.3803    5.4911 N   0  0  0  0  0  0  0  0  0  0  0  0
   40.5874  -37.2905    5.0094 C   0  0  0  0  0  0  0  0  0  0  0  0
   40.2462  -37.1094    3.6737 C   0  0  0  0  0  0  0  0  0  0  0  0
   39.3936  -38.1401    3.3487 C   0  0  0  0  0  0  0  0  0  0  0  0
   39.2567  -38.8998    4.5031 C   0  0  0  0  0  0  0  0  0  0  0  0
   39.4795  -39.9180    7.3830 N   0  0  0  0  0  0  0  0  0  0  0  0
   40.2431  -43.2930   10.4709 N   0  0  0  0  0  0  0  0  0  0  0  0
   41.1297  -44.4224   10.4411 C   0  0  0  0  0  0  0  0  0  0  0  0
   40.7041  -45.4457    9.4628 C   0  0  0  0  0  0  0  0  0  0  0  0
   41.2408  -45.7593    8.2694 N   0  0  0  0  0  0  0  0  0  0  0  0
   40.5444  -46.7461    7.7089 C   0  0  0  0  0  0  0  0  0  0  0  0
   40.6114  -47.4665    6.5291 C   0  0  0  0  0  0  0  0  0  0  0  0
   39.7188  -48.4656    6.2130 C   0  0  0  0  0  0  0  0  0  0  0  0
   38.7102  -48.7660    7.1091 C   0  0  0  0  0  0  0  0  0  0  0  0
   38.6033  -48.0758    8.2968 C   0  0  0  0  0  0  0  0  0  0  0  0
   39.5302  -47.0676    8.5809 C   0  0  0  0  0  0  0  0  0  0  0  0
   39.6563  -46.2543    9.6425 N   0  0  0  0  0  0  0  0  0  0  0  0
  1  2  2  0  0  0  0
  2  3  1  0  0  0  0
  2 14  1  0  0  0  0
  3  4  1  0  0  0  0
  4  5  2  0  0  0  0
  5  6  1  0  0  0  0
  6  7  1  0  0  0  0
  7  8  1  0  0  0  0
  7 13  2  0  0  0  0
  8  9  1  0  0  0  0
  9 10  2  0  0  0  0
 10 11  1  0  0  0  0
 11 12  2  0  0  0  0
 12  8  1  0  0  0  0
 13  4  1  0  0  0  0
 14 15  1  0  0  0  0
 15 16  1  0  0  0  0
 16 17  2  0  0  0  0
 17 18  1  0  0  0  0
 18 19  2  0  0  0  0
 19 20  1  0  0  0  0
 20 21  2  0  0  0  0
 21 22  1  0  0  0  0
 22 23  2  0  0  0  0
 23 24  1  0  0  0  0
 23 18  1  0  0  0  0
 24 16  1  0  0  0  0
M  END
>  <CHROM.1>
-52.01637990,-81.56612497,-2.76542503,-54.92132195,106.81527048,40.07963534
-42.46903736,7.63971213,-1.77475502,-1.40401312,-0.44781427

>  <Name>
design_7

>  <RI>
0

>  <Rbt.Current_Directory>
/home/ziqiaoxu/icml18-jtnn/VAEdesign

>  <Rbt.Executable>
rbdock ($Id: //depot/dev/client3/rdock/2013.1/src/exe/rbdock.cxx#4 $)

>  <Rbt.Library>
libRbt.so (2013.1, Build901 2013/11/27)

>  <Rbt.Parameter_File>
/export/apps/rDock/src/rDock_2013.1_src//data/scripts/dock.prm

>  <Rbt.Receptor>
/home/ziqiaoxu/icml18-jtnn/VAEdesign/targets/RdRp-SARS-CoV-2/pocket_docking.prm

>  <SCORE>
-33.4176

>  <SCORE.INTER>
-19.5848

>  <SCORE.INTER.CONST>
1

>  <SCORE.INTER.POLAR>
-1.27206

>  <SCORE.INTER.REPUL>
0.0383425

>  <SCORE.INTER.ROT>
5

>  <SCORE.INTER.VDW>
-25.8515

>  <SCORE.INTER.norm>
-0.816034

>  <SCORE.INTRA>
-13.8328

>  <SCORE.INTRA.DIHEDRAL>
-25.7325

>  <SCORE.INTRA.DIHEDRAL.0>
31.7584

>  <SCORE.INTRA.POLAR>
0.00590304

>  <SCORE.INTRA.POLAR.0>
-0.00590304

>  <SCORE.INTRA.REPUL>
0

>  <SCORE.INTRA.REPUL.0>
0

>  <SCORE.INTRA.VDW>
-0.986637

>  <SCORE.INTRA.VDW.0>
-1.32315

>  <SCORE.INTRA.norm>
-0.576368

>  <SCORE.RESTR>
0

>  <SCORE.RESTR.CAVITY>
0

>  <SCORE.RESTR.norm>
0

>  <SCORE.SYSTEM>
0

>  <SCORE.SYSTEM.CONST>
0

>  <SCORE.SYSTEM.DIHEDRAL>
0

>  <SCORE.SYSTEM.norm>
0

>  <SCORE.heavy>
24

>  <SCORE.norm>
-1.3924

$$$$
design_10
 OpenBabel05252019093D

 24 26  0  0  0  0  0  0  0  0999 V2000
   40.3061  -46.0083   11.0486 N   0  0  0  0  0  0  0  0  0  0  0  0
   40.8215  -45.1891    9.6209 S   0  0  0  0  0  0  0  0  0  0  0  0
   40.0512  -43.9169    9.4421 O   0  0  0  0  0  0  0  0  0  0  0  0
   42.2982  -44.8762    9.7627 O   0  0  0  0  0  0  0  0  0  0  0  0
   40.5365  -46.2219    8.2402 C   0  0  0  0  0  0  0  0  0  0  0  0
   39.6695  -47.2902    8.3744 C   0  0  0  0  0  0  0  0  0  0  0  0
   39.4217  -48.1248    7.3053 C   0  0  0  0  0  0  0  0  0  0  0  0
   40.0604  -47.8763    6.0798 C   0  0  0  0  0  0  0  0  0  0  0  0
   40.9306  -46.8270    5.8982 C   0  0  0  0  0  0  0  0  0  0  0  0
   41.6097  -46.5329    4.6901 N   0  0  0  0  0  0  0  0  0  0  0  0
   42.4830  -45.4909    4.4513 C   0  0  0  0  0  0  0  0  0  0  0  0
   42.8324  -44.6046    5.2749 O   0  0  0  0  0  0  0  0  0  0  0  0
   43.0850  -45.3967    3.0655 C   0  0  0  0  0  0  0  0  0  0  0  0
   42.0457  -45.0198    2.0594 C   0  0  0  0  0  0  0  0  0  0  0  0
   42.4144  -43.7420    1.4086 C   0  0  0  0  0  0  0  0  0  0  0  0
   41.6889  -42.5652    1.3596 C   0  0  0  0  0  0  0  0  0  0  0  0
   42.3818  -41.6446    0.6686 N   0  0  0  0  0  0  0  0  0  0  0  0
   43.5570  -42.1669    0.2487 C   0  0  0  0  0  0  0  0  0  0  0  0
   44.5923  -41.6236   -0.4835 C   0  0  0  0  0  0  0  0  0  0  0  0
   45.6774  -42.4206   -0.7577 C   0  0  0  0  0  0  0  0  0  0  0  0
   45.7043  -43.7280   -0.2997 C   0  0  0  0  0  0  0  0  0  0  0  0
   44.6757  -44.2757    0.4305 C   0  0  0  0  0  0  0  0  0  0  0  0
   43.5840  -43.4684    0.7044 C   0  0  0  0  0  0  0  0  0  0  0  0
   41.1301  -46.0282    7.0244 C   0  0  0  0  0  0  0  0  0  0  0  0
  1  2  1  0  0  0  0
  2  3  2  0  0  0  0
  2  4  2  0  0  0  0
  2  5  1  0  0  0  0
  5  6  2  0  0  0  0
  6  7  1  0  0  0  0
  7  8  2  0  0  0  0
  8  9  1  0  0  0  0
  9 10  1  0  0  0  0
  9 24  2  0  0  0  0
 10 11  1  0  0  0  0
 11 12  2  0  0  0  0
 11 13  1  0  0  0  0
 13 14  1  0  0  0  0
 14 15  1  0  0  0  0
 15 16  2  0  0  0  0
 16 17  1  0  0  0  0
 17 18  1  0  0  0  0
 18 19  2  0  0  0  0
 19 20  1  0  0  0  0
 20 21  2  0  0  0  0
 21 22  1  0  0  0  0
 22 23  2  0  0  0  0
 23 15  1  0  0  0  0
 23 18  1  0  0  0  0
 24  5  1  0  0  0  0
M  END
>  <CHROM.1>
40.57049240,17.25660830,179.48970814,69.18232416,119.60544369,-122.08738144
42.04247043,-44.81589826,4.82822569,-2.51436159,-1.12314164,-2.13049694

>  <Name>
design_10

>  <RI>
0

>  <Rbt.Current_Directory>
/home/ziqiaoxu/icml18-jtnn/VAEdesign

>  <Rbt.Executable>
rbdock ($Id: //depot/dev/client3/rdock/2013.1/src/exe/rbdock.cxx#4 $)

>  <Rbt.Library>
libRbt.so (2013.1, Build901 2013/11/27)

>  <Rbt.Parameter_File>
/export/apps/rDock/src/rDock_2013.1_src//data/scripts/dock.prm

>  <Rbt.Receptor>
/home/ziqiaoxu/icml18-jtnn/VAEdesign/targets/RdRp-SARS-CoV-2/pocket_docking.prm

>  <SCORE>
-25.8513

>  <SCORE.INTER>
-26.2206

>  <SCORE.INTER.CONST>
1

>  <SCORE.INTER.POLAR>
-3.46207

>  <SCORE.INTER.REPUL>
0

>  <SCORE.INTER.ROT>
6

>  <SCORE.INTER.VDW>
-25.8496

>  <SCORE.INTER.norm>
-1.09253

>  <SCORE.INTRA>
0.369322

>  <SCORE.INTRA.DIHEDRAL>
3.78147

>  <SCORE.INTRA.DIHEDRAL.0>
4.59977

>  <SCORE.INTRA.POLAR>
0

>  <SCORE.INTRA.POLAR.0>
0

>  <SCORE.INTRA.REPUL>
0

>  <SCORE.INTRA.REPUL.0>
0

>  <SCORE.INTRA.VDW>
-1.52141

>  <SCORE.INTRA.VDW.0>
-0.136588

>  <SCORE.INTRA.norm>
0.0153884

>  <SCORE.RESTR>
0

>  <SCORE.RESTR.CAVITY>
0

>  <SCORE.RESTR.norm>
0

>  <SCORE.SYSTEM>
0

>  <SCORE.SYSTEM.CONST>
0

>  <SCORE.SYSTEM.DIHEDRAL>
0

>  <SCORE.SYSTEM.norm>
0

>  <SCORE.heavy>
24

>  <SCORE.norm>
-1.07714

$$$$
design_7
 OpenBabel05252019093D

 24 26  0  0  0  0  0  0  0  0999 V2000
   40.9627  -41.9430    7.8800 C   0  0  0  0  0  0  0  0  0  0  0  0
   40.7907  -40.4808    7.5282 C   0  0  0  0  0  0  0  0  0  0  0  0
   40.7327  -39.9114    6.3516 N   0  0  0  0  0  0  0  0  0  0  0  0
   40.5793  -38.6287    6.2498 C   0  0  0  0  0  0  0  0  0  0  0  0
   40.5107  -37.9491    4.9262 C   0  0  0  0  0  0  0  0  0  0  0  0
   39.9967  -36.6652    4.7946 C   0  0  0  0  0  0  0  0  0  0  0  0
   39.9231  -36.0118    3.5982 C   0  0  0  0  0  0  0  0  0  0  0  0
   40.3888  -36.6738    2.4619 C   0  0  0  0  0  0  0  0  0  0  0  0
   40.9062  -37.9472    2.5446 C   0  0  0  0  0  0  0  0  0  0  0  0
   41.4123  -38.6817    1.3484 C   0  0  0  0  0  0  0  0  0  0  0  0
   41.3634  -40.1065    1.5585 N   0  0  0  0  0  0  0  0  0  0  0  0
   42.3656  -40.9309    1.0067 C   0  0  0  0  0  0  0  0  0  0  0  0
   43.3013  -40.4049    0.3315 O   0  0  0  0  0  0  0  0  0  0  0  0
   42.3376  -42.3749    1.2037 C   0  0  0  0  0  0  0  0  0  0  0  0
   41.4466  -43.0237    2.0100 C   0  0  0  0  0  0  0  0  0  0  0  0
   41.4464  -44.4113    2.1853 C   0  0  0  0  0  0  0  0  0  0  0  0
   42.4045  -45.1277    1.4963 C   0  0  0  0  0  0  0  0  0  0  0  0
   43.3109  -44.4964    0.6794 C   0  0  0  0  0  0  0  0  0  0  0  0
   44.2935  -45.3045   -0.0163 C   0  0  0  0  0  0  0  0  0  0  0  0
   45.0878  -45.9506   -0.5545 N   0  0  0  0  0  0  0  0  0  0  0  0
   43.2915  -43.1322    0.5232 C   0  0  0  0  0  0  0  0  0  0  0  0
   40.9514  -38.5513    3.7882 C   0  0  0  0  0  0  0  0  0  0  0  0
   40.4829  -37.9137    7.4210 C   0  0  0  0  0  0  0  0  0  0  0  0
   40.6214  -39.1518    8.5932 S   0  0  0  0  0  0  0  0  0  0  0  0
  1  2  1  0  0  0  0
  2  3  2  0  0  0  0
  3  4  1  0  0  0  0
  4  5  1  0  0  0  0
  4 23  2  0  0  0  0
  5  6  2  0  0  0  0
  6  7  1  0  0  0  0
  7  8  2  0  0  0  0
  8  9  1  0  0  0  0
  9 10  1  0  0  0  0
  9 22  2  0  0  0  0
 10 11  1  0  0  0  0
 11 12  1  0  0  0  0
 12 13  2  0  0  0  0
 12 14  1  0  0  0  0
 14 15  2  0  0  0  0
 15 16  1  0  0  0  0
 16 17  2  0  0  0  0
 17 18  1  0  0  0  0
 18 19  1  0  0  0  0
 18 21  2  0  0  0  0
 19 20  3  0  0  0  0
 21 14  1  0  0  0  0
 22  5  1  0  0  0  0
 23 24  1  0  0  0  0
 24  2  1  0  0  0  0
M  END
>  <CHROM.1>
162.39391563,-155.64520570,-145.09780246,-6.13423713,41.57183426,-40.57356271
3.54292159,-2.94666414,1.23117032,-0.96572700

>  <Name>
design_7

>  <RI>
0

>  <Rbt.Current_Directory>
/home/ziqiaoxu/icml18-jtnn/VAEdesign

>  <Rbt.Executable>
rbdock ($Id: //depot/dev/client3/rdock/2013.1/src/exe/rbdock.cxx#4 $)

>  <Rbt.Library>
libRbt.so (2013.1, Build901 2013/11/27)

>  <Rbt.Parameter_File>
/export/apps/rDock/src/rDock_2013.1_src//data/scripts/dock.prm

>  <Rbt.Receptor>
/home/ziqiaoxu/icml18-jtnn/VAEdesign/targets/RdRp-SARS-CoV-2/pocket_docking.prm

>  <SCORE>
-19.0337

>  <SCORE.INTER>
-20.3436

>  <SCORE.INTER.CONST>
1

>  <SCORE.INTER.POLAR>
-1.14564

>  <SCORE.INTER.REPUL>
0

>  <SCORE.INTER.ROT>
4

>  <SCORE.INTER.VDW>
-25.8484

>  <SCORE.INTER.norm>
-0.847651

>  <SCORE.INTRA>
1.30838

>  <SCORE.INTRA.DIHEDRAL>
0.895703

>  <SCORE.INTRA.DIHEDRAL.0>
2.35709

>  <SCORE.INTRA.POLAR>
0

>  <SCORE.INTRA.POLAR.0>
0

>  <SCORE.INTRA.REPUL>
0

>  <SCORE.INTRA.REPUL.0>
0

>  <SCORE.INTRA.VDW>
0.860527

>  <SCORE.INTRA.VDW.0>
-1.03605

>  <SCORE.INTRA.norm>
0.0545158

>  <SCORE.RESTR>
0.00153093

>  <SCORE.RESTR.CAVITY>
0.00153093

>  <SCORE.RESTR.norm>
6.37888e-05

>  <SCORE.SYSTEM>
0

>  <SCORE.SYSTEM.CONST>
0

>  <SCORE.SYSTEM.DIHEDRAL>
0

>  <SCORE.SYSTEM.norm>
0

>  <SCORE.heavy>
24

>  <SCORE.norm>
-0.793072

$$$$
design_3
 OpenBabel05252019093D

 24 26  0  0  0  0  0  0  0  0999 V2000
   43.0689  -44.1943    9.4614 C   0  0  0  0  0  0  0  0  0  0  0  0
   42.0642  -45.1248    8.9074 C   0  0  0  0  0  0  0  0  0  0  0  0
   40.8812  -45.4244    9.5905 C   0  0  0  0  0  0  0  0  0  0  0  0
   39.9507  -46.2964    9.0637 C   0  0  0  0  0  0  0  0  0  0  0  0
   40.1983  -46.8809    7.8391 C   0  0  0  0  0  0  0  0  0  0  0  0
   39.0933  -48.0023    7.0792 S   0  0  0  0  0  0  0  0  0  0  0  0
   38.2743  -48.6211    8.1993 O   0  0  0  0  0  0  0  0  0  0  0  0
   39.9012  -49.0989    6.4572 O   0  0  0  0  0  0  0  0  0  0  0  0
   38.1007  -47.2899    5.8988 N   0  0  0  0  0  0  0  0  0  0  0  0
   37.6995  -45.9479    6.0025 C   0  0  0  0  0  0  0  0  0  0  0  0
   38.4545  -44.9540    6.5595 C   0  0  0  0  0  0  0  0  0  0  0  0
   38.0091  -43.6336    6.6319 C   0  0  0  0  0  0  0  0  0  0  0  0
   36.7723  -43.2821    6.1350 C   0  0  0  0  0  0  0  0  0  0  0  0
   36.2928  -41.9518    6.1875 N   0  0  0  0  0  0  0  0  0  0  0  0
   34.9368  -41.5484    5.8262 C   0  0  0  0  0  0  0  0  0  0  0  0
   35.2460  -40.2059    5.1518 C   0  0  0  0  0  0  0  0  0  0  0  0
   36.1811  -39.6624    6.0936 O   0  0  0  0  0  0  0  0  0  0  0  0
   36.9277  -40.7387    6.5660 C   0  0  0  0  0  0  0  0  0  0  0  0
   38.0085  -40.7008    7.2326 O   0  0  0  0  0  0  0  0  0  0  0  0
   35.9961  -44.2883    5.5653 C   0  0  0  0  0  0  0  0  0  0  0  0
   36.4627  -45.5824    5.5087 C   0  0  0  0  0  0  0  0  0  0  0  0
   41.3646  -46.5792    7.1754 C   0  0  0  0  0  0  0  0  0  0  0  0
   42.3154  -45.7068    7.6825 C   0  0  0  0  0  0  0  0  0  0  0  0
   43.5551  -45.4283    6.9056 C   0  0  0  0  0  0  0  0  0  0  0  0
  1  2  1  0  0  0  0
  2  3  2  0  0  0  0
  3  4  1  0  0  0  0
  4  5  2  0  0  0  0
  5  6  1  0  0  0  0
  5 22  1  0  0  0  0
  6  7  2  0  0  0  0
  6  8  2  0  0  0  0
  6  9  1  0  0  0  0
  9 10  1  0  0  0  0
 10 11  2  0  0  0  0
 11 12  1  0  0  0  0
 12 13  2  0  0  0  0
 13 14  1  0  0  0  0
 13 20  1  0  0  0  0
 14 15  1  0  0  0  0
 15 16  1  0  0  0  0
 16 17  1  0  0  0  0
 17 18  1  0  0  0  0
 18 19  2  0  0  0  0
 18 14  1  0  0  0  0
 20 21  2  0  0  0  0
 21 10  1  0  0  0  0
 22 23  2  0  0  0  0
 23 24  1  0  0  0  0
 23  2  1  0  0  0  0
M  END
>  <CHROM.1>
-24.59605103,-30.98147589,32.67388110,-172.33969139,38.74690812,-44.80227625
6.98424312,-0.83226703,-0.42220315,0.05931995

>  <Name>
design_3

>  <RI>
0

>  <Rbt.Current_Directory>
/home/ziqiaoxu/icml18-jtnn/VAEdesign

>  <Rbt.Executable>
rbdock ($Id: //depot/dev/client3/rdock/2013.1/src/exe/rbdock.cxx#4 $)

>  <Rbt.Library>
libRbt.so (2013.1, Build901 2013/11/27)

>  <Rbt.Parameter_File>
/export/apps/rDock/src/rDock_2013.1_src//data/scripts/dock.prm

>  <Rbt.Receptor>
/home/ziqiaoxu/icml18-jtnn/VAEdesign/targets/RdRp-SARS-CoV-2/pocket_docking.prm

>  <SCORE>
-20.7729

>  <SCORE.INTER>
-19.0492

>  <SCORE.INTER.CONST>
1

>  <SCORE.INTER.POLAR>
-0.766015

>  <SCORE.INTER.REPUL>
0

>  <SCORE.INTER.ROT>
4

>  <SCORE.INTER.VDW>
-25.8447

>  <SCORE.INTER.norm>
-0.793715

>  <SCORE.INTRA>
-1.72375

>  <SCORE.INTRA.DIHEDRAL>
-4.33025

>  <SCORE.INTRA.DIHEDRAL.0>
10.6859

>  <SCORE.INTRA.POLAR>
0

>  <SCORE.INTRA.POLAR.0>
0

>  <SCORE.INTRA.REPUL>
0

>  <SCORE.INTRA.REPUL.0>
0

>  <SCORE.INTRA.VDW>
0.441374

>  <SCORE.INTRA.VDW.0>
-2.20067

>  <SCORE.INTRA.norm>
-0.0718229

>  <SCORE.RESTR>
0

>  <SCORE.RESTR.CAVITY>
0

>  <SCORE.RESTR.norm>
0

>  <SCORE.SYSTEM>
0

>  <SCORE.SYSTEM.CONST>
0

>  <SCORE.SYSTEM.DIHEDRAL>
0

>  <SCORE.SYSTEM.norm>
0

>  <SCORE.heavy>
24

>  <SCORE.norm>
-0.865538

$$$$
design_3
 OpenBabel05252019093D

 25 27  0  0  0  0  0  0  0  0999 V2000
   40.2692  -46.0364   10.9111 N   0  0  0  0  0  0  0  0  0  0  0  0
   40.8890  -45.2120    9.5439 S   0  0  0  0  0  0  0  0  0  0  0  0
   40.2388  -43.8726    9.3427 O   0  0  0  0  0  0  0  0  0  0  0  0
   42.3872  -45.1027    9.6127 O   0  0  0  0  0  0  0  0  0  0  0  0
   40.5316  -46.1691    8.0878 C   0  0  0  0  0  0  0  0  0  0  0  0
   39.5192  -47.1034    8.1132 C   0  0  0  0  0  0  0  0  0  0  0  0
   39.2776  -47.8222    6.9700 C   0  0  0  0  0  0  0  0  0  0  0  0
   39.9977  -47.6512    5.8084 C   0  0  0  0  0  0  0  0  0  0  0  0
   41.0122  -46.7236    5.7632 C   0  0  0  0  0  0  0  0  0  0  0  0
   41.8268  -46.4639    4.6455 N   0  0  0  0  0  0  0  0  0  0  0  0
   42.9195  -45.6041    4.6108 C   0  0  0  0  0  0  0  0  0  0  0  0
   43.3427  -44.9295    5.5645 O   0  0  0  0  0  0  0  0  0  0  0  0
   43.7102  -45.4277    3.3244 C   0  0  0  0  0  0  0  0  0  0  0  0
   42.8122  -45.0758    2.1817 C   0  0  0  0  0  0  0  0  0  0  0  0
   43.3573  -45.3364    0.8145 C   0  0  0  0  0  0  0  0  0  0  0  0
   44.2542  -44.3247    0.2561 C   0  0  0  0  0  0  0  0  0  0  0  0
   45.4975  -44.5286   -0.3423 C   0  0  0  0  0  0  0  0  0  0  0  0
   46.0260  -43.3485   -0.6815 N   0  0  0  0  0  0  0  0  0  0  0  0
   45.1887  -42.3372   -0.3379 C   0  0  0  0  0  0  0  0  0  0  0  0
   45.2802  -40.9624   -0.4908 C   0  0  0  0  0  0  0  0  0  0  0  0
   44.2432  -40.1601   -0.0534 C   0  0  0  0  0  0  0  0  0  0  0  0
   43.1316  -40.7181    0.5270 C   0  0  0  0  0  0  0  0  0  0  0  0
   43.0825  -42.0834    0.6592 C   0  0  0  0  0  0  0  0  0  0  0  0
   44.0926  -42.9480    0.2416 C   0  0  0  0  0  0  0  0  0  0  0  0
   41.2540  -45.9890    6.9417 C   0  0  0  0  0  0  0  0  0  0  0  0
  1  2  1  0  0  0  0
  2  3  2  0  0  0  0
  2  4  2  0  0  0  0
  2  5  1  0  0  0  0
  5  6  2  0  0  0  0
  6  7  1  0  0  0  0
  7  8  2  0  0  0  0
  8  9  1  0  0  0  0
  9 10  1  0  0  0  0
  9 25  2  0  0  0  0
 10 11  1  0  0  0  0
 11 12  2  0  0  0  0
 11 13  1  0  0  0  0
 13 14  1  0  0  0  0
 14 15  1  0  0  0  0
 15 16  1  0  0  0  0
 16 17  2  0  0  0  0
 17 18  1  0  0  0  0
 18 19  1  0  0  0  0
 19 20  2  0  0  0  0
 20 21  1  0  0  0  0
 21 22  2  0  0  0  0
 22 23  1  0  0  0  0
 23 24  2  0  0  0  0
 24 16  1  0  0  0  0
 24 19  1  0  0  0  0
 25  5  1  0  0  0  0
M  END
>  <CHROM.1>
37.50708930,20.94654144,-174.84690547,52.71985599,-159.50532454,-81.95160741
131.37757331,42.45618334,-44.69047081,4.50382533,-2.82809371,-1.14730257
-2.44055176

>  <Name>
design_3

>  <RI>
0

>  <Rbt.Current_Directory>
/home/ziqiaoxu/icml18-jtnn/VAEdesign

>  <Rbt.Executable>
rbdock ($Id: //depot/dev/client3/rdock/2013.1/src/exe/rbdock.cxx#4 $)

>  <Rbt.Library>
libRbt.so (2013.1, Build901 2013/11/27)

>  <Rbt.Parameter_File>
/export/apps/rDock/src/rDock_2013.1_src//data/scripts/dock.prm

>  <Rbt.Receptor>
/home/ziqiaoxu/icml18-jtnn/VAEdesign/targets/RdRp-SARS-CoV-2/pocket_docking.prm

>  <SCORE>
-30.0059

>  <SCORE.INTER>
-28.718

>  <SCORE.INTER.CONST>
1

>  <SCORE.INTER.POLAR>
-4.49237

>  <SCORE.INTER.REPUL>
0

>  <SCORE.INTER.ROT>
7

>  <SCORE.INTER.VDW>
-25.844

>  <SCORE.INTER.norm>
-1.14872

>  <SCORE.INTRA>
-1.28787

>  <SCORE.INTRA.DIHEDRAL>
0.718883

>  <SCORE.INTRA.DIHEDRAL.0>
5.58497

>  <SCORE.INTRA.POLAR>
0

>  <SCORE.INTRA.POLAR.0>
0

>  <SCORE.INTRA.REPUL>
0

>  <SCORE.INTRA.REPUL.0>
0

>  <SCORE.INTRA.VDW>
-1.64731

>  <SCORE.INTRA.VDW.0>
0.137758

>  <SCORE.INTRA.norm>
-0.0515147

>  <SCORE.RESTR>
0

>  <SCORE.RESTR.CAVITY>
0

>  <SCORE.RESTR.norm>
0

>  <SCORE.SYSTEM>
0

>  <SCORE.SYSTEM.CONST>
0

>  <SCORE.SYSTEM.DIHEDRAL>
0

>  <SCORE.SYSTEM.norm>
0

>  <SCORE.heavy>
25

>  <SCORE.norm>
-1.20024

$$$$
design_10
 OpenBabel05252019093D

 24 26  0  0  0  0  0  0  0  0999 V2000
   38.7590  -48.1274    7.8597 C   0  0  0  0  0  0  0  0  0  0  0  0
   39.9122  -47.2111    8.1055 C   0  0  0  0  0  0  0  0  0  0  0  0
   39.9631  -46.4182    9.2321 C   0  0  0  0  0  0  0  0  0  0  0  0
   41.0220  -45.5583    9.4853 C   0  0  0  0  0  0  0  0  0  0  0  0
   42.0773  -45.4702    8.5979 C   0  0  0  0  0  0  0  0  0  0  0  0
   43.4121  -44.3806    8.9253 S   0  0  0  0  0  0  0  0  0  0  0  0
   42.9769  -42.9671    8.5786 O   0  0  0  0  0  0  0  0  0  0  0  0
   43.8046  -44.3760   10.3576 O   0  0  0  0  0  0  0  0  0  0  0  0
   44.7780  -44.7409    7.9565 N   0  0  0  0  0  0  0  0  0  0  0  0
   44.3795  -44.8731    6.5543 C   0  0  0  0  0  0  0  0  0  0  0  0
   45.5700  -45.1139    5.6776 C   0  0  0  0  0  0  0  0  0  0  0  0
   45.1533  -45.2354    4.2642 C   0  0  0  0  0  0  0  0  0  0  0  0
   44.1253  -44.6141    3.8917 O   0  0  0  0  0  0  0  0  0  0  0  0
   45.8872  -46.0303    3.3429 N   0  0  0  0  0  0  0  0  0  0  0  0
   47.0916  -46.7999    3.6270 C   0  0  0  0  0  0  0  0  0  0  0  0
   47.7661  -46.8421    2.2912 C   0  0  0  0  0  0  0  0  0  0  0  0
   46.6670  -46.6985    1.3173 C   0  0  0  0  0  0  0  0  0  0  0  0
   46.6431  -46.9770   -0.0513 C   0  0  0  0  0  0  0  0  0  0  0  0
   45.4948  -46.7616   -0.7746 C   0  0  0  0  0  0  0  0  0  0  0  0
   44.3890  -46.2714   -0.1180 C   0  0  0  0  0  0  0  0  0  0  0  0
   44.4100  -45.9960    1.2322 C   0  0  0  0  0  0  0  0  0  0  0  0
   45.5706  -46.2108    1.9772 C   0  0  0  0  0  0  0  0  0  0  0  0
   42.0206  -46.2649    7.4744 C   0  0  0  0  0  0  0  0  0  0  0  0
   40.9666  -47.1215    7.2213 C   0  0  0  0  0  0  0  0  0  0  0  0
  1  2  1  0  0  0  0
  2  3  2  0  0  0  0
  3  4  1  0  0  0  0
  4  5  2  0  0  0  0
  5  6  1  0  0  0  0
  5 23  1  0  0  0  0
  6  7  2  0  0  0  0
  6  8  2  0  0  0  0
  6  9  1  0  0  0  0
  9 10  1  0  0  0  0
 10 11  1  0  0  0  0
 11 12  1  0  0  0  0
 12 13  2  0  0  0  0
 12 14  1  0  0  0  0
 14 15  1  0  0  0  0
 15 16  1  0  0  0  0
 16 17  1  0  0  0  0
 17 18  2  0  0  0  0
 18 19  1  0  0  0  0
 19 20  2  0  0  0  0
 20 21  1  0  0  0  0
 21 22  2  0  0  0  0
 22 14  1  0  0  0  0
 22 17  1  0  0  0  0
 23 24  2  0  0  0  0
 24  2  1  0  0  0  0
M  END
>  <CHROM.1>
-77.91202142,49.23306189,176.88275651,-179.58951548,29.23310476,43.84700541
-45.75117617,5.57712059,2.13804109,0.43639097,1.19056283

>  <Name>
design_10

>  <RI>
0

>  <Rbt.Current_Directory>
/home/ziqiaoxu/icml18-jtnn/VAEdesign

>  <Rbt.Executable>
rbdock ($Id: //depot/dev/client3/rdock/2013.1/src/exe/rbdock.cxx#4 $)

>  <Rbt.Library>
libRbt.so (2013.1, Build901 2013/11/27)

>  <Rbt.Parameter_File>
/export/apps/rDock/src/rDock_2013.1_src//data/scripts/dock.prm

>  <Rbt.Receptor>
/home/ziqiaoxu/icml18-jtnn/VAEdesign/targets/RdRp-SARS-CoV-2/pocket_docking.prm

>  <SCORE>
-17.1436

>  <SCORE.INTER>
-18.0074

>  <SCORE.INTER.CONST>
1

>  <SCORE.INTER.POLAR>
-0.754167

>  <SCORE.INTER.REPUL>
0

>  <SCORE.INTER.ROT>
5

>  <SCORE.INTER.VDW>
-25.8432

>  <SCORE.INTER.norm>
-0.750307

>  <SCORE.INTRA>
0.863739

>  <SCORE.INTRA.DIHEDRAL>
0.989902

>  <SCORE.INTRA.DIHEDRAL.0>
2.3742

>  <SCORE.INTRA.POLAR>
0

>  <SCORE.INTRA.POLAR.0>
0

>  <SCORE.INTRA.REPUL>
0

>  <SCORE.INTRA.REPUL.0>
0

>  <SCORE.INTRA.VDW>
0.368789

>  <SCORE.INTRA.VDW.0>
0.179322

>  <SCORE.INTRA.norm>
0.0359891

>  <SCORE.RESTR>
0

>  <SCORE.RESTR.CAVITY>
0

>  <SCORE.RESTR.norm>
0

>  <SCORE.SYSTEM>
0

>  <SCORE.SYSTEM.CONST>
0

>  <SCORE.SYSTEM.DIHEDRAL>
0

>  <SCORE.SYSTEM.norm>
0

>  <SCORE.heavy>
24

>  <SCORE.norm>
-0.714317

$$$$
design_4
 OpenBabel05252019093D

 22 23  0  0  0  0  0  0  0  0999 V2000
   40.2164  -46.0381   10.8207 N   0  0  0  0  0  0  0  0  0  0  0  0
   39.9556  -45.7751    9.1263 S   0  0  0  0  0  0  0  0  0  0  0  0
   39.3770  -47.0571    8.5607 O   0  0  0  0  0  0  0  0  0  0  0  0
   39.0691  -44.6087    8.9048 O   0  0  0  0  0  0  0  0  0  0  0  0
   41.5283  -45.5673    8.3424 C   0  0  0  0  0  0  0  0  0  0  0  0
   41.7874  -46.1015    7.1057 C   0  0  0  0  0  0  0  0  0  0  0  0
   43.0001  -45.9532    6.4781 C   0  0  0  0  0  0  0  0  0  0  0  0
   44.0422  -45.2373    7.0853 C   0  0  0  0  0  0  0  0  0  0  0  0
   45.3207  -45.0751    6.4246 C   0  0  0  0  0  0  0  0  0  0  0  0
   46.2140  -44.4263    7.0702 O   0  0  0  0  0  0  0  0  0  0  0  0
   45.5452  -45.6053    5.1522 N   0  0  0  0  0  0  0  0  0  0  0  0
   46.7970  -45.4868    4.4270 C   0  0  0  0  0  0  0  0  0  0  0  0
   47.1367  -46.6917    3.6341 C   0  0  0  0  0  0  0  0  0  0  0  0
   46.8590  -46.5892    2.2905 O   0  0  0  0  0  0  0  0  0  0  0  0
   45.7609  -46.3587    1.5575 C   0  0  0  0  0  0  0  0  0  0  0  0
   44.5608  -45.9602    2.0685 C   0  0  0  0  0  0  0  0  0  0  0  0
   43.4616  -45.7376    1.2278 C   0  0  0  0  0  0  0  0  0  0  0  0
   43.5385  -45.9086   -0.1363 C   0  0  0  0  0  0  0  0  0  0  0  0
   44.7454  -46.3106   -0.6549 C   0  0  0  0  0  0  0  0  0  0  0  0
   45.8222  -46.5291    0.1630 C   0  0  0  0  0  0  0  0  0  0  0  0
   43.7664  -44.7084    8.3241 C   0  0  0  0  0  0  0  0  0  0  0  0
   42.5360  -44.8604    8.9579 C   0  0  0  0  0  0  0  0  0  0  0  0
  1  2  1  0  0  0  0
  2  3  2  0  0  0  0
  2  4  2  0  0  0  0
  2  5  1  0  0  0  0
  5  6  2  0  0  0  0
  6  7  1  0  0  0  0
  7  8  2  0  0  0  0
  8  9  1  0  0  0  0
  8 21  1  0  0  0  0
  9 10  2  0  0  0  0
  9 11  1  0  0  0  0
 11 12  1  0  0  0  0
 12 13  1  0  0  0  0
 13 14  1  0  0  0  0
 14 15  1  0  0  0  0
 15 16  2  0  0  0  0
 16 17  1  0  0  0  0
 17 18  2  0  0  0  0
 18 19  1  0  0  0  0
 19 20  2  0  0  0  0
 20 15  1  0  0  0  0
 21 22  2  0  0  0  0
 22  5  1  0  0  0  0
M  END
>  <CHROM.1>
-77.14555880,140.89632174,-178.79791401,143.40786365,100.65694279,-58.75728599
9.89711339,43.42143142,-45.76291034,5.62955601,-2.16044477,-0.12118257,-1.71703228

>  <Name>
design_4

>  <RI>
0

>  <Rbt.Current_Directory>
/home/ziqiaoxu/icml18-jtnn/VAEdesign

>  <Rbt.Executable>
rbdock ($Id: //depot/dev/client3/rdock/2013.1/src/exe/rbdock.cxx#4 $)

>  <Rbt.Library>
libRbt.so (2013.1, Build901 2013/11/27)

>  <Rbt.Parameter_File>
/export/apps/rDock/src/rDock_2013.1_src//data/scripts/dock.prm

>  <Rbt.Receptor>
/home/ziqiaoxu/icml18-jtnn/VAEdesign/targets/RdRp-SARS-CoV-2/pocket_docking.prm

>  <SCORE>
-19.8068

>  <SCORE.INTER>
-21.5452

>  <SCORE.INTER.CONST>
1

>  <SCORE.INTER.POLAR>
-2.38329

>  <SCORE.INTER.REPUL>
0

>  <SCORE.INTER.ROT>
7

>  <SCORE.INTER.VDW>
-25.842

>  <SCORE.INTER.norm>
-0.979329

>  <SCORE.INTRA>
1.7384

>  <SCORE.INTRA.DIHEDRAL>
3.74188

>  <SCORE.INTRA.DIHEDRAL.0>
3.54018

>  <SCORE.INTRA.POLAR>
0

>  <SCORE.INTRA.POLAR.0>
0

>  <SCORE.INTRA.REPUL>
0

>  <SCORE.INTRA.REPUL.0>
0

>  <SCORE.INTRA.VDW>
-0.13254

>  <SCORE.INTRA.VDW.0>
-1.10299

>  <SCORE.INTRA.norm>
0.0790182

>  <SCORE.RESTR>
0

>  <SCORE.RESTR.CAVITY>
0

>  <SCORE.RESTR.norm>
0

>  <SCORE.SYSTEM>
0

>  <SCORE.SYSTEM.CONST>
0

>  <SCORE.SYSTEM.DIHEDRAL>
0

>  <SCORE.SYSTEM.norm>
0

>  <SCORE.heavy>
22

>  <SCORE.norm>
-0.900311

$$$$
design_15
 OpenBabel05252019093D

 24 25  0  0  0  0  0  0  0  0999 V2000
   36.9536  -40.8501    6.9756 C   0  0  0  0  0  0  0  0  0  0  0  0
   38.2019  -41.6608    7.3045 C   0  0  0  0  0  0  0  0  0  0  0  0
   39.0442  -40.9564    8.2122 N   0  0  0  0  0  0  0  0  0  0  0  0
   39.2011  -41.6623    9.5394 C   0  0  0  0  0  0  0  0  0  0  0  0
   40.1716  -42.7560    9.3858 C   0  0  0  0  0  0  0  0  0  0  0  0
   41.1552  -42.6681    8.6174 O   0  0  0  0  0  0  0  0  0  0  0  0
   39.9832  -43.9443   10.1329 N   0  0  0  0  0  0  0  0  0  0  0  0
   40.9082  -45.0518   10.0172 C   0  0  0  0  0  0  0  0  0  0  0  0
   40.3936  -46.0453    9.0566 C   0  0  0  0  0  0  0  0  0  0  0  0
   39.1771  -46.6484    9.3148 C   0  0  0  0  0  0  0  0  0  0  0  0
   38.6607  -47.5739    8.4613 C   0  0  0  0  0  0  0  0  0  0  0  0
   39.3668  -47.9072    7.3288 C   0  0  0  0  0  0  0  0  0  0  0  0
   40.5778  -47.3371    7.0287 C   0  0  0  0  0  0  0  0  0  0  0  0
   41.0831  -46.3962    7.9144 C   0  0  0  0  0  0  0  0  0  0  0  0
   39.7498  -39.7597    8.1083 C   0  0  0  0  0  0  0  0  0  0  0  0
   40.4348  -39.4001    9.1763 O   0  0  0  0  0  0  0  0  0  0  0  0
   39.8795  -38.8059    7.0221 C   0  0  0  0  0  0  0  0  0  0  0  0
   40.0970  -37.4621    7.1693 C   0  0  0  0  0  0  0  0  0  0  0  0
   40.2194  -36.6234    6.0802 C   0  0  0  0  0  0  0  0  0  0  0  0
   40.1238  -37.1273    4.8080 C   0  0  0  0  0  0  0  0  0  0  0  0
   39.9060  -38.4659    4.5993 C   0  0  0  0  0  0  0  0  0  0  0  0
   39.8055  -38.9962    3.2951 O   0  0  0  0  0  0  0  0  0  0  0  0
   40.4210  -38.3704    2.2023 C   0  0  0  0  0  0  0  0  0  0  0  0
   39.7892  -39.2715    5.6993 C   0  0  0  0  0  0  0  0  0  0  0  0
  1  2  1  0  0  0  0
  2  3  1  0  0  0  0
  3  4  1  0  0  0  0
  3 15  1  0  0  0  0
  4  5  1  0  0  0  0
  5  6  2  0  0  0  0
  5  7  1  0  0  0  0
  7  8  1  0  0  0  0
  8  9  1  0  0  0  0
  9 10  2  0  0  0  0
 10 11  1  0  0  0  0
 11 12  2  0  0  0  0
 12 13  1  0  0  0  0
 13 14  2  0  0  0  0
 14  9  1  0  0  0  0
 15 16  2  0  0  0  0
 15 17  1  0  0  0  0
 17 18  2  0  0  0  0
 18 19  1  0  0  0  0
 19 20  2  0  0  0  0
 20 21  1  0  0  0  0
 21 22  1  0  0  0  0
 21 24  2  0  0  0  0
 22 23  1  0  0  0  0
 24 17  1  0  0  0  0
M  END
>  <CHROM.1>
116.45768983,78.71024953,34.27309861,-96.47169276,-60.25366368,150.61522225
25.80892221,39.79817228,-41.86456364,7.38112162,-2.07031131,1.56583847,-3.04203790

>  <Name>
design_15

>  <RI>
0

>  <Rbt.Current_Directory>
/home/ziqiaoxu/icml18-jtnn/VAEdesign

>  <Rbt.Executable>
rbdock ($Id: //depot/dev/client3/rdock/2013.1/src/exe/rbdock.cxx#4 $)

>  <Rbt.Library>
libRbt.so (2013.1, Build901 2013/11/27)

>  <Rbt.Parameter_File>
/export/apps/rDock/src/rDock_2013.1_src//data/scripts/dock.prm

>  <Rbt.Receptor>
/home/ziqiaoxu/icml18-jtnn/VAEdesign/targets/RdRp-SARS-CoV-2/pocket_docking.prm

>  <SCORE>
-16.7965

>  <SCORE.INTER>
-17.8275

>  <SCORE.INTER.CONST>
1

>  <SCORE.INTER.POLAR>
-1.2901

>  <SCORE.INTER.REPUL>
0

>  <SCORE.INTER.ROT>
7

>  <SCORE.INTER.VDW>
-25.8412

>  <SCORE.INTER.norm>
-0.742814

>  <SCORE.INTRA>
0.551658

>  <SCORE.INTRA.DIHEDRAL>
4.01776

>  <SCORE.INTRA.DIHEDRAL.0>
5.66826

>  <SCORE.INTRA.POLAR>
0

>  <SCORE.INTRA.POLAR.0>
0

>  <SCORE.INTRA.REPUL>
0

>  <SCORE.INTRA.REPUL.0>
0

>  <SCORE.INTRA.VDW>
-1.45722

>  <SCORE.INTRA.VDW.0>
0.379152

>  <SCORE.INTRA.norm>
0.0229857

>  <SCORE.RESTR>
0.479408

>  <SCORE.RESTR.CAVITY>
0.479408

>  <SCORE.RESTR.norm>
0.0199753

>  <SCORE.SYSTEM>
0

>  <SCORE.SYSTEM.CONST>
0

>  <SCORE.SYSTEM.DIHEDRAL>
0

>  <SCORE.SYSTEM.norm>
0

>  <SCORE.heavy>
24

>  <SCORE.norm>
-0.699852

$$$$
design_13
 OpenBabel05252019093D

 23 25  0  0  0  0  0  0  0  0999 V2000
   39.7767  -42.6899    7.8143 O   0  0  0  0  0  0  0  0  0  0  0  0
   39.7692  -41.6179    8.4806 C   0  0  0  0  0  0  0  0  0  0  0  0
   39.5812  -41.6097    9.8886 N   0  0  0  0  0  0  0  0  0  0  0  0
   39.3955  -42.8925   10.5427 C   0  0  0  0  0  0  0  0  0  0  0  0
   40.6198  -43.7559   10.4367 C   0  0  0  0  0  0  0  0  0  0  0  0
   40.4800  -44.8935    9.5391 C   0  0  0  0  0  0  0  0  0  0  0  0
   39.4231  -45.7614    9.7228 C   0  0  0  0  0  0  0  0  0  0  0  0
   39.2060  -46.8633    8.9278 C   0  0  0  0  0  0  0  0  0  0  0  0
   40.0789  -47.1198    7.8987 C   0  0  0  0  0  0  0  0  0  0  0  0
   39.8337  -48.5206    6.8599 Cl  0  0  0  0  0  0  0  0  0  0  0  0
   41.1420  -46.2828    7.6814 C   0  0  0  0  0  0  0  0  0  0  0  0
   41.3413  -45.1762    8.4969 C   0  0  0  0  0  0  0  0  0  0  0  0
   39.9571  -40.3495    7.8028 C   0  0  0  0  0  0  0  0  0  0  0  0
   40.3531  -39.1818    8.4042 C   0  0  0  0  0  0  0  0  0  0  0  0
   40.4079  -38.2490    7.4487 N   0  0  0  0  0  0  0  0  0  0  0  0
   40.0748  -38.7363    6.2765 N   0  0  0  0  0  0  0  0  0  0  0  0
   40.0229  -38.0287    5.0377 C   0  0  0  0  0  0  0  0  0  0  0  0
   40.1329  -36.6349    5.0024 C   0  0  0  0  0  0  0  0  0  0  0  0
   40.0829  -35.9481    3.8042 C   0  0  0  0  0  0  0  0  0  0  0  0
   39.9221  -36.6319    2.6105 C   0  0  0  0  0  0  0  0  0  0  0  0
   39.8120  -37.9953    2.6181 C   0  0  0  0  0  0  0  0  0  0  0  0
   39.8638  -38.6673    3.8237 C   0  0  0  0  0  0  0  0  0  0  0  0
   39.7899  -40.0381    6.4658 C   0  0  0  0  0  0  0  0  0  0  0  0
  1  2  2  0  0  0  0
  2  3  1  0  0  0  0
  2 13  1  0  0  0  0
  3  4  1  0  0  0  0
  4  5  1  0  0  0  0
  5  6  1  0  0  0  0
  6  7  2  0  0  0  0
  7  8  1  0  0  0  0
  8  9  2  0  0  0  0
  9 10  1  0  0  0  0
  9 11  1  0  0  0  0
 11 12  2  0  0  0  0
 12  6  1  0  0  0  0
 13 14  1  0  0  0  0
 14 15  2  0  0  0  0
 15 16  1  0  0  0  0
 16 17  1  0  0  0  0
 16 23  1  0  0  0  0
 17 18  2  0  0  0  0
 18 19  1  0  0  0  0
 19 20  2  0  0  0  0
 20 21  1  0  0  0  0
 21 22  2  0  0  0  0
 22 17  1  0  0  0  0
 23 13  2  0  0  0  0
M  END
>  <CHROM.1>
64.77077230,-108.69043415,-53.65620854,-160.01704737,-10.35179390,40.02711827
-42.09696040,7.20947250,-1.35680147,-1.56500578,-0.17059657

>  <Name>
design_13

>  <RI>
0

>  <Rbt.Current_Directory>
/home/ziqiaoxu/icml18-jtnn/VAEdesign

>  <Rbt.Executable>
rbdock ($Id: //depot/dev/client3/rdock/2013.1/src/exe/rbdock.cxx#4 $)

>  <Rbt.Library>
libRbt.so (2013.1, Build901 2013/11/27)

>  <Rbt.Parameter_File>
/export/apps/rDock/src/rDock_2013.1_src//data/scripts/dock.prm

>  <Rbt.Receptor>
/home/ziqiaoxu/icml18-jtnn/VAEdesign/targets/RdRp-SARS-CoV-2/pocket_docking.prm

>  <SCORE>
-20.5315

>  <SCORE.INTER>
-18.4266

>  <SCORE.INTER.CONST>
1

>  <SCORE.INTER.POLAR>
-0.881183

>  <SCORE.INTER.REPUL>
0.00205697

>  <SCORE.INTER.ROT>
5

>  <SCORE.INTER.VDW>
-25.8408

>  <SCORE.INTER.norm>
-0.801154

>  <SCORE.INTRA>
-2.105

>  <SCORE.INTRA.DIHEDRAL>
-5.49485

>  <SCORE.INTRA.DIHEDRAL.0>
14.2086

>  <SCORE.INTRA.POLAR>
0

>  <SCORE.INTRA.POLAR.0>
0

>  <SCORE.INTRA.REPUL>
0

>  <SCORE.INTRA.REPUL.0>
0

>  <SCORE.INTRA.VDW>
0.642427

>  <SCORE.INTRA.VDW.0>
-1.31478

>  <SCORE.INTRA.norm>
-0.0915216

>  <SCORE.RESTR>
0

>  <SCORE.RESTR.CAVITY>
0

>  <SCORE.RESTR.norm>
0

>  <SCORE.SYSTEM>
0

>  <SCORE.SYSTEM.CONST>
0

>  <SCORE.SYSTEM.DIHEDRAL>
0

>  <SCORE.SYSTEM.norm>
0

>  <SCORE.heavy>
23

>  <SCORE.norm>
-0.892676

$$$$
design_3
 OpenBabel05252019093D

 25 28  0  0  0  0  0  0  0  0999 V2000
   49.1169  -48.1510    0.1324 C   0  0  0  0  0  0  0  0  0  0  0  0
   48.5534  -47.6386    1.4365 C   0  0  0  0  0  0  0  0  0  0  0  0
   49.0867  -47.6973    2.6641 N   0  0  0  0  0  0  0  0  0  0  0  0
   48.2622  -47.1240    3.5555 N   0  0  0  0  0  0  0  0  0  0  0  0
   47.1820  -46.6886    2.9048 C   0  0  0  0  0  0  0  0  0  0  0  0
   45.9935  -45.9908    3.4333 C   0  0  0  0  0  0  0  0  0  0  0  0
   45.0233  -45.4806    2.5944 C   0  0  0  0  0  0  0  0  0  0  0  0
   43.9305  -44.8318    3.1709 C   0  0  0  0  0  0  0  0  0  0  0  0
   43.7915  -44.6861    4.5489 C   0  0  0  0  0  0  0  0  0  0  0  0
   44.7399  -45.1854    5.3732 C   0  0  0  0  0  0  0  0  0  0  0  0
   44.7642  -45.1399    6.8419 C   0  0  0  0  0  0  0  0  0  0  0  0
   43.4938  -45.6601    7.3492 N   0  0  0  0  0  0  0  0  0  0  0  0
   42.8058  -44.9988    8.4002 C   0  0  0  0  0  0  0  0  0  0  0  0
   43.2671  -43.9690    8.9519 O   0  0  0  0  0  0  0  0  0  0  0  0
   41.5438  -45.4949    8.8730 C   0  0  0  0  0  0  0  0  0  0  0  0
   40.9648  -45.1890   10.0887 C   0  0  0  0  0  0  0  0  0  0  0  0
   39.8282  -45.8865   10.1983 N   0  0  0  0  0  0  0  0  0  0  0  0
   39.6381  -46.6362    9.1009 C   0  0  0  0  0  0  0  0  0  0  0  0
   38.6373  -47.5063    8.7101 C   0  0  0  0  0  0  0  0  0  0  0  0
   38.6881  -48.1473    7.4869 C   0  0  0  0  0  0  0  0  0  0  0  0
   39.7360  -47.9310    6.6318 C   0  0  0  0  0  0  0  0  0  0  0  0
   40.7475  -47.0465    7.0353 C   0  0  0  0  0  0  0  0  0  0  0  0
   40.7171  -46.3966    8.2548 C   0  0  0  0  0  0  0  0  0  0  0  0
   45.8388  -45.8382    4.7852 C   0  0  0  0  0  0  0  0  0  0  0  0
   47.3780  -47.0148    1.5983 N   0  0  0  0  0  0  0  0  0  0  0  0
  1  2  1  0  0  0  0
  2  3  2  0  0  0  0
  3  4  1  0  0  0  0
  4  5  1  0  0  0  0
  5  6  1  0  0  0  0
  5 25  2  0  0  0  0
  6  7  2  0  0  0  0
  7  8  1  0  0  0  0
  8  9  2  0  0  0  0
  9 10  1  0  0  0  0
 10 11  1  0  0  0  0
 10 24  2  0  0  0  0
 11 12  1  0  0  0  0
 12 13  1  0  0  0  0
 13 14  2  0  0  0  0
 13 15  1  0  0  0  0
 15 16  2  0  0  0  0
 16 17  1  0  0  0  0
 17 18  1  0  0  0  0
 18 19  2  0  0  0  0
 19 20  1  0  0  0  0
 20 21  2  0  0  0  0
 21 22  1  0  0  0  0
 22 23  2  0  0  0  0
 23 15  1  0  0  0  0
 23 18  1  0  0  0  0
 24  6  1  0  0  0  0
 25  2  1  0  0  0  0
M  END
>  <CHROM.1>
172.95229963,52.03517556,-135.66635877,161.03732456,43.80305881,-46.25207765
5.76324833,0.60790981,-0.42631113,-2.21208239

>  <Name>
design_3

>  <RI>
0

>  <Rbt.Current_Directory>
/home/ziqiaoxu/icml18-jtnn/VAEdesign

>  <Rbt.Executable>
rbdock ($Id: //depot/dev/client3/rdock/2013.1/src/exe/rbdock.cxx#4 $)

>  <Rbt.Library>
libRbt.so (2013.1, Build901 2013/11/27)

>  <Rbt.Parameter_File>
/export/apps/rDock/src/rDock_2013.1_src//data/scripts/dock.prm

>  <Rbt.Receptor>
/home/ziqiaoxu/icml18-jtnn/VAEdesign/targets/RdRp-SARS-CoV-2/pocket_docking.prm

>  <SCORE>
-23.3295

>  <SCORE.INTER>
-22.3504

>  <SCORE.INTER.CONST>
1

>  <SCORE.INTER.POLAR>
-1.73833

>  <SCORE.INTER.REPUL>
0

>  <SCORE.INTER.ROT>
4

>  <SCORE.INTER.VDW>
-25.8401

>  <SCORE.INTER.norm>
-0.894017

>  <SCORE.INTRA>
-0.979039

>  <SCORE.INTRA.DIHEDRAL>
-3.16714

>  <SCORE.INTRA.DIHEDRAL.0>
6.24606

>  <SCORE.INTRA.POLAR>
0

>  <SCORE.INTRA.POLAR.0>
0

>  <SCORE.INTRA.REPUL>
0

>  <SCORE.INTRA.REPUL.0>
0

>  <SCORE.INTRA.VDW>
0.60453

>  <SCORE.INTRA.VDW.0>
-2.03306

>  <SCORE.INTRA.norm>
-0.0391616

>  <SCORE.RESTR>
0

>  <SCORE.RESTR.CAVITY>
0

>  <SCORE.RESTR.norm>
0

>  <SCORE.SYSTEM>
0

>  <SCORE.SYSTEM.CONST>
0

>  <SCORE.SYSTEM.DIHEDRAL>
0

>  <SCORE.SYSTEM.norm>
0

>  <SCORE.heavy>
25

>  <SCORE.norm>
-0.933178

$$$$
design_9
 OpenBabel05252019093D

 26 29  0  0  0  0  0  0  0  0999 V2000
   46.9643  -46.7769    2.5193 C   0  0  0  0  0  0  0  0  0  0  0  0
   46.6817  -46.0614    3.8126 C   0  0  0  0  0  0  0  0  0  0  0  0
   47.5861  -45.3133    4.4511 N   0  0  0  0  0  0  0  0  0  0  0  0
   47.0506  -44.8363    5.5679 N   0  0  0  0  0  0  0  0  0  0  0  0
   45.7868  -45.2731    5.6640 C   0  0  0  0  0  0  0  0  0  0  0  0
   44.8844  -45.0103    6.7755 C   0  0  0  0  0  0  0  0  0  0  0  0
   45.3172  -44.1942    7.8192 C   0  0  0  0  0  0  0  0  0  0  0  0
   44.5122  -43.9971    8.8936 C   0  0  0  0  0  0  0  0  0  0  0  0
   43.2247  -44.5798    9.0298 C   0  0  0  0  0  0  0  0  0  0  0  0
   42.5622  -44.3503   10.3219 C   0  0  0  0  0  0  0  0  0  0  0  0
   41.1746  -43.8990   10.1516 N   0  0  0  0  0  0  0  0  0  0  0  0
   40.3063  -45.0081   10.4247 C   0  0  0  0  0  0  0  0  0  0  0  0
   39.6675  -45.7739    9.3877 C   0  0  0  0  0  0  0  0  0  0  0  0
   39.0424  -45.0212    8.3551 C   0  0  0  0  0  0  0  0  0  0  0  0
   38.4243  -45.5890    7.2733 C   0  0  0  0  0  0  0  0  0  0  0  0
   37.8428  -44.7717    6.2991 C   0  0  0  0  0  0  0  0  0  0  0  0
   37.2308  -45.3595    5.2238 C   0  0  0  0  0  0  0  0  0  0  0  0
   37.1992  -46.7464    5.1178 C   0  0  0  0  0  0  0  0  0  0  0  0
   37.7723  -47.5620    6.0705 C   0  0  0  0  0  0  0  0  0  0  0  0
   38.3911  -46.9538    7.1578 C   0  0  0  0  0  0  0  0  0  0  0  0
   38.9898  -47.6968    8.1537 C   0  0  0  0  0  0  0  0  0  0  0  0
   38.9505  -48.9457    8.0378 O   0  0  0  0  0  0  0  0  0  0  0  0
   39.5961  -47.0842    9.2148 N   0  0  0  0  0  0  0  0  0  0  0  0
   42.8044  -45.3679    8.0092 C   0  0  0  0  0  0  0  0  0  0  0  0
   43.6335  -45.5684    6.9079 C   0  0  0  0  0  0  0  0  0  0  0  0
   45.5831  -46.0376    4.5503 N   0  0  0  0  0  0  0  0  0  0  0  0
  1  2  1  0  0  0  0
  2  3  2  0  0  0  0
  3  4  1  0  0  0  0
  4  5  1  0  0  0  0
  5  6  1  0  0  0  0
  5 26  2  0  0  0  0
  6  7  2  0  0  0  0
  7  8  1  0  0  0  0
  8  9  2  0  0  0  0
  9 10  1  0  0  0  0
  9 24  1  0  0  0  0
 10 11  1  0  0  0  0
 11 12  1  0  0  0  0
 12 13  1  0  0  0  0
 13 14  2  0  0  0  0
 14 15  1  0  0  0  0
 15 16  2  0  0  0  0
 16 17  1  0  0  0  0
 17 18  2  0  0  0  0
 18 19  1  0  0  0  0
 19 20  2  0  0  0  0
 20 21  1  0  0  0  0
 20 15  1  0  0  0  0
 21 22  2  0  0  0  0
 21 23  1  0  0  0  0
 23 13  1  0  0  0  0
 24 25  2  0  0  0  0
 25  6  1  0  0  0  0
 26  2  1  0  0  0  0
M  END
>  <CHROM.1>
2.85696637,131.88609414,103.32738606,-102.30199028,-46.67483433,42.00724959
-45.69846175,7.13331122,0.24011365,-0.22116313,-1.94336867

>  <Name>
design_9

>  <RI>
0

>  <Rbt.Current_Directory>
/home/ziqiaoxu/icml18-jtnn/VAEdesign

>  <Rbt.Executable>
rbdock ($Id: //depot/dev/client3/rdock/2013.1/src/exe/rbdock.cxx#4 $)

>  <Rbt.Library>
libRbt.so (2013.1, Build901 2013/11/27)

>  <Rbt.Parameter_File>
/export/apps/rDock/src/rDock_2013.1_src//data/scripts/dock.prm

>  <Rbt.Receptor>
/home/ziqiaoxu/icml18-jtnn/VAEdesign/targets/RdRp-SARS-CoV-2/pocket_docking.prm

>  <SCORE>
-20.992

>  <SCORE.INTER>
-20.9272

>  <SCORE.INTER.CONST>
1

>  <SCORE.INTER.POLAR>
-1.61443

>  <SCORE.INTER.REPUL>
0

>  <SCORE.INTER.ROT>
5

>  <SCORE.INTER.VDW>
-25.8381

>  <SCORE.INTER.norm>
-0.804892

>  <SCORE.INTRA>
-0.0647654

>  <SCORE.INTRA.DIHEDRAL>
1.19069

>  <SCORE.INTRA.DIHEDRAL.0>
4.409

>  <SCORE.INTRA.POLAR>
0

>  <SCORE.INTRA.POLAR.0>
0

>  <SCORE.INTRA.REPUL>
0

>  <SCORE.INTRA.REPUL.0>
0

>  <SCORE.INTRA.VDW>
-0.660112

>  <SCORE.INTRA.VDW.0>
-1.55122

>  <SCORE.INTRA.norm>
-0.00249098

>  <SCORE.RESTR>
0

>  <SCORE.RESTR.CAVITY>
0

>  <SCORE.RESTR.norm>
0

>  <SCORE.SYSTEM>
0

>  <SCORE.SYSTEM.CONST>
0

>  <SCORE.SYSTEM.DIHEDRAL>
0

>  <SCORE.SYSTEM.norm>
0

>  <SCORE.heavy>
26

>  <SCORE.norm>
-0.807383

$$$$
design_12
 OpenBabel05252019093D

 25 28  0  0  0  0  0  0  0  0999 V2000
   44.7167  -46.3640   -0.0867 C   0  0  0  0  0  0  0  0  0  0  0  0
   43.9022  -45.2087    0.4420 C   0  0  0  0  0  0  0  0  0  0  0  0
   44.0906  -43.9279    0.2061 N   0  0  0  0  0  0  0  0  0  0  0  0
   43.3031  -43.0460    0.7344 C   0  0  0  0  0  0  0  0  0  0  0  0
   43.4545  -41.5918    0.5137 C   0  0  0  0  0  0  0  0  0  0  0  0
   44.4602  -41.1699   -0.3151 C   0  0  0  0  0  0  0  0  0  0  0  0
   44.6553  -39.8294   -0.5634 C   0  0  0  0  0  0  0  0  0  0  0  0
   43.8424  -38.8969    0.0181 C   0  0  0  0  0  0  0  0  0  0  0  0
   42.8158  -39.3073    0.8629 C   0  0  0  0  0  0  0  0  0  0  0  0
   41.9485  -38.3149    1.4768 C   0  0  0  0  0  0  0  0  0  0  0  0
   42.3014  -37.1109    1.4068 O   0  0  0  0  0  0  0  0  0  0  0  0
   40.7421  -38.6365    2.1408 N   0  0  0  0  0  0  0  0  0  0  0  0
   39.8584  -37.6819    2.7631 C   0  0  0  0  0  0  0  0  0  0  0  0
   39.3774  -38.1258    4.1027 C   0  0  2  0  0  0  0  0  0  0  0  0
   39.9298  -37.2177    5.1911 C   0  0  0  0  0  0  0  0  0  0  0  0
   40.2277  -38.1925    6.2639 C   0  0  0  0  0  0  0  0  0  0  0  0
   40.5277  -37.9482    7.5996 C   0  0  0  0  0  0  0  0  0  0  0  0
   40.7782  -39.0087    8.4519 C   0  0  0  0  0  0  0  0  0  0  0  0
   40.7286  -40.3009    7.9699 C   0  0  0  0  0  0  0  0  0  0  0  0
   40.4301  -40.5455    6.6407 C   0  0  0  0  0  0  0  0  0  0  0  0
   40.1784  -39.4796    5.7844 C   0  0  0  0  0  0  0  0  0  0  0  0
   39.8622  -39.4135    4.4442 O   0  0  0  0  0  0  0  0  0  0  0  0
   42.6440  -40.6610    1.0934 C   0  0  0  0  0  0  0  0  0  0  0  0
   42.2840  -43.5136    1.5361 C   0  0  0  0  0  0  0  0  0  0  0  0
   42.5417  -45.2025    1.4660 S   0  0  0  0  0  0  0  0  0  0  0  0
  1  2  1  0  0  0  0
  2  3  2  0  0  0  0
  3  4  1  0  0  0  0
  4  5  1  0  0  0  0
  4 24  2  0  0  0  0
  5  6  2  0  0  0  0
  6  7  1  0  0  0  0
  7  8  2  0  0  0  0
  8  9  1  0  0  0  0
  9 10  1  0  0  0  0
  9 23  2  0  0  0  0
 10 11  2  0  0  0  0
 10 12  1  0  0  0  0
 12 13  1  0  0  0  0
 14 13  1  6  0  0  0
 14 15  1  0  0  0  0
 15 16  1  0  0  0  0
 16 17  2  0  0  0  0
 17 18  1  0  0  0  0
 18 19  2  0  0  0  0
 19 20  1  0  0  0  0
 20 21  2  0  0  0  0
 21 22  1  0  0  0  0
 21 16  1  0  0  0  0
 22 14  1  0  0  0  0
 23  5  1  0  0  0  0
 24 25  1  0  0  0  0
 25  2  1  0  0  0  0
M  END
>  <CHROM.1>
1.53604366,-12.15491297,-135.90937535,113.63187691,41.99519292,-40.66384441
2.72433708,0.35290094,-1.12004012,2.75669219

>  <Name>
design_12

>  <RI>
0

>  <Rbt.Current_Directory>
/home/ziqiaoxu/icml18-jtnn/VAEdesign

>  <Rbt.Executable>
rbdock ($Id: //depot/dev/client3/rdock/2013.1/src/exe/rbdock.cxx#4 $)

>  <Rbt.Library>
libRbt.so (2013.1, Build901 2013/11/27)

>  <Rbt.Parameter_File>
/export/apps/rDock/src/rDock_2013.1_src//data/scripts/dock.prm

>  <Rbt.Receptor>
/home/ziqiaoxu/icml18-jtnn/VAEdesign/targets/RdRp-SARS-CoV-2/pocket_docking.prm

>  <SCORE>
-17.6931

>  <SCORE.INTER>
-20.2449

>  <SCORE.INTER.CONST>
1

>  <SCORE.INTER.POLAR>
-1.14564

>  <SCORE.INTER.REPUL>
0.0171362

>  <SCORE.INTER.ROT>
4

>  <SCORE.INTER.VDW>
-25.8354

>  <SCORE.INTER.norm>
-0.809796

>  <SCORE.INTRA>
2.55181

>  <SCORE.INTRA.DIHEDRAL>
5.10324

>  <SCORE.INTRA.DIHEDRAL.0>
1.74747

>  <SCORE.INTRA.POLAR>
0

>  <SCORE.INTRA.POLAR.0>
0

>  <SCORE.INTRA.REPUL>
0

>  <SCORE.INTRA.REPUL.0>
0

>  <SCORE.INTRA.VDW>
0.000189407

>  <SCORE.INTRA.VDW.0>
-0.384919

>  <SCORE.INTRA.norm>
0.102072

>  <SCORE.RESTR>
0

>  <SCORE.RESTR.CAVITY>
0

>  <SCORE.RESTR.norm>
0

>  <SCORE.SYSTEM>
0

>  <SCORE.SYSTEM.CONST>
0

>  <SCORE.SYSTEM.DIHEDRAL>
0

>  <SCORE.SYSTEM.norm>
0

>  <SCORE.heavy>
25

>  <SCORE.norm>
-0.707723

$$$$
design_12
 OpenBabel05252019093D

 23 25  0  0  0  0  0  0  0  0999 V2000
   44.6024  -47.2087   -0.7252 N   0  0  0  0  0  0  0  0  0  0  0  0
   44.5536  -45.8008    0.2334 S   0  0  0  0  0  0  0  0  0  0  0  0
   45.2674  -44.6754   -0.4640 O   0  0  0  0  0  0  0  0  0  0  0  0
   43.1110  -45.3808    0.3682 O   0  0  0  0  0  0  0  0  0  0  0  0
   45.2970  -46.0215    1.7995 C   0  0  0  0  0  0  0  0  0  0  0  0
   46.4470  -46.7882    1.9463 C   0  0  0  0  0  0  0  0  0  0  0  0
   47.0009  -46.9373    3.1956 C   0  0  0  0  0  0  0  0  0  0  0  0
   46.4263  -46.3343    4.2987 C   0  0  0  0  0  0  0  0  0  0  0  0
   45.2909  -45.5719    4.1838 C   0  0  0  0  0  0  0  0  0  0  0  0
   44.6478  -44.9175    5.3087 C   0  0  0  0  0  0  0  0  0  0  0  0
   43.8298  -43.9664    5.0487 O   0  0  0  0  0  0  0  0  0  0  0  0
   44.8982  -45.2973    6.6457 N   0  0  0  0  0  0  0  0  0  0  0  0
   44.2349  -44.6156    7.7084 C   0  0  0  0  0  0  0  0  0  0  0  0
   42.8967  -45.2284    7.9868 C   0  0  0  0  0  0  0  0  0  0  0  0
   42.1033  -44.9404    9.0755 C   0  0  0  0  0  0  0  0  0  0  0  0
   40.9357  -45.6779    9.0309 C   0  0  0  0  0  0  0  0  0  0  0  0
   39.8138  -45.7943    9.8277 C   0  0  0  0  0  0  0  0  0  0  0  0
   38.8165  -46.6591    9.4566 C   0  0  0  0  0  0  0  0  0  0  0  0
   38.9034  -47.4101    8.3175 C   0  0  0  0  0  0  0  0  0  0  0  0
   40.0234  -47.2923    7.5241 C   0  0  0  0  0  0  0  0  0  0  0  0
   41.0517  -46.4342    7.8591 C   0  0  0  0  0  0  0  0  0  0  0  0
   42.2305  -46.1419    7.2629 N   0  0  0  0  0  0  0  0  0  0  0  0
   44.7489  -45.4380    2.8968 C   0  0  0  0  0  0  0  0  0  0  0  0
  1  2  1  0  0  0  0
  2  3  2  0  0  0  0
  2  4  2  0  0  0  0
  2  5  1  0  0  0  0
  5  6  2  0  0  0  0
  6  7  1  0  0  0  0
  7  8  2  0  0  0  0
  8  9  1  0  0  0  0
  9 10  1  0  0  0  0
  9 23  2  0  0  0  0
 10 11  2  0  0  0  0
 10 12  1  0  0  0  0
 12 13  1  0  0  0  0
 13 14  1  0  0  0  0
 14 15  2  0  0  0  0
 15 16  1  0  0  0  0
 16 17  2  0  0  0  0
 17 18  1  0  0  0  0
 18 19  2  0  0  0  0
 19 20  1  0  0  0  0
 20 21  2  0  0  0  0
 21 22  1  0  0  0  0
 21 16  1  0  0  0  0
 22 14  1  0  0  0  0
 23  5  1  0  0  0  0
M  END
>  <CHROM.1>
116.84929635,38.23102871,161.87776628,86.49177719,169.43330429,43.46413619
-45.83087614,4.74012257,1.04732292,-0.24539678,-1.69162970

>  <Name>
design_12

>  <RI>
0

>  <Rbt.Current_Directory>
/home/ziqiaoxu/icml18-jtnn/VAEdesign

>  <Rbt.Executable>
rbdock ($Id: //depot/dev/client3/rdock/2013.1/src/exe/rbdock.cxx#4 $)

>  <Rbt.Library>
libRbt.so (2013.1, Build901 2013/11/27)

>  <Rbt.Parameter_File>
/export/apps/rDock/src/rDock_2013.1_src//data/scripts/dock.prm

>  <Rbt.Receptor>
/home/ziqiaoxu/icml18-jtnn/VAEdesign/targets/RdRp-SARS-CoV-2/pocket_docking.prm

>  <SCORE>
-24.3961

>  <SCORE.INTER>
-24.6694

>  <SCORE.INTER.CONST>
1

>  <SCORE.INTER.POLAR>
-2.74438

>  <SCORE.INTER.REPUL>
0.018784

>  <SCORE.INTER.ROT>
5

>  <SCORE.INTER.VDW>
-25.8324

>  <SCORE.INTER.norm>
-1.07258

>  <SCORE.INTRA>
0.273268

>  <SCORE.INTRA.DIHEDRAL>
1.94981

>  <SCORE.INTRA.DIHEDRAL.0>
5.88232

>  <SCORE.INTRA.POLAR>
0

>  <SCORE.INTRA.POLAR.0>
0

>  <SCORE.INTRA.REPUL>
0

>  <SCORE.INTRA.REPUL.0>
0

>  <SCORE.INTRA.VDW>
-0.701638

>  <SCORE.INTRA.VDW.0>
-1.30668

>  <SCORE.INTRA.norm>
0.0118812

>  <SCORE.RESTR>
0

>  <SCORE.RESTR.CAVITY>
0

>  <SCORE.RESTR.norm>
0

>  <SCORE.SYSTEM>
0

>  <SCORE.SYSTEM.CONST>
0

>  <SCORE.SYSTEM.DIHEDRAL>
0

>  <SCORE.SYSTEM.norm>
0

>  <SCORE.heavy>
23

>  <SCORE.norm>
-1.0607

$$$$
design_14
 OpenBabel05252019093D

 24 26  0  0  0  0  0  0  0  0999 V2000
   40.6243  -42.0235    7.9514 O   0  0  0  0  0  0  0  0  0  0  0  0
   40.1474  -41.4051    8.9538 C   0  0  0  0  0  0  0  0  0  0  0  0
   39.7922  -42.1877   10.1623 C   0  0  0  0  0  0  0  0  0  0  0  0
   39.8315  -43.6697    9.8417 C   0  0  0  0  0  0  0  0  0  0  0  0
   40.5823  -44.5148   10.6203 C   0  0  0  0  0  0  0  0  0  0  0  0
   40.2898  -46.0224    9.8587 S   0  0  0  0  0  0  0  0  0  0  0  0
   39.2496  -45.4855    8.6222 C   0  0  0  0  0  0  0  0  0  0  0  0
   38.6204  -46.3195    7.5850 C   0  0  0  0  0  0  0  0  0  0  0  0
   38.9910  -47.6430    7.4620 C   0  0  0  0  0  0  0  0  0  0  0  0
   38.4440  -48.4685    6.5198 C   0  0  0  0  0  0  0  0  0  0  0  0
   37.5162  -47.9625    5.6924 N   0  0  0  0  0  0  0  0  0  0  0  0
   37.1342  -46.6795    5.7862 C   0  0  0  0  0  0  0  0  0  0  0  0
   37.6814  -45.8178    6.7433 C   0  0  0  0  0  0  0  0  0  0  0  0
   39.1772  -44.1881    8.8503 N   0  0  0  0  0  0  0  0  0  0  0  0
   39.9816  -40.0081    8.8635 N   0  0  0  0  0  0  0  0  0  0  0  0
   40.3446  -39.3008    7.6631 C   0  0  0  0  0  0  0  0  0  0  0  0
   39.2237  -39.0606    6.7121 C   0  0  0  0  0  0  0  0  0  0  0  0
   39.5797  -38.3749    5.4693 C   0  0  0  0  0  0  0  0  0  0  0  0
   39.8461  -39.0432    4.2786 C   0  0  0  0  0  0  0  0  0  0  0  0
   40.1728  -38.4147    3.1141 C   0  0  0  0  0  0  0  0  0  0  0  0
   40.2492  -37.0435    3.0921 C   0  0  0  0  0  0  0  0  0  0  0  0
   40.5713  -36.3741    1.9548 F   0  0  0  0  0  0  0  0  0  0  0  0
   39.9941  -36.3343    4.2464 C   0  0  0  0  0  0  0  0  0  0  0  0
   39.6609  -37.0037    5.4279 C   0  0  0  0  0  0  0  0  0  0  0  0
  1  2  2  0  0  0  0
  2  3  1  0  0  0  0
  2 15  1  0  0  0  0
  3  4  1  0  0  0  0
  4  5  2  0  0  0  0
  5  6  1  0  0  0  0
  6  7  1  0  0  0  0
  7  8  1  0  0  0  0
  7 14  2  0  0  0  0
  8  9  2  0  0  0  0
  9 10  1  0  0  0  0
 10 11  2  0  0  0  0
 11 12  1  0  0  0  0
 12 13  2  0  0  0  0
 13  8  1  0  0  0  0
 14  4  1  0  0  0  0
 15 16  1  0  0  0  0
 16 17  1  0  0  0  0
 17 18  1  0  0  0  0
 18 19  2  0  0  0  0
 19 20  1  0  0  0  0
 20 21  2  0  0  0  0
 21 22  1  0  0  0  0
 21 23  1  0  0  0  0
 23 24  2  0  0  0  0
 24 18  1  0  0  0  0
M  END
>  <CHROM.1>
-11.10951324,126.72982480,-8.03553223,95.43637159,-178.40412286,96.59433625
39.55690142,-42.32341786,7.00376112,-1.22652333,1.23648582,2.40112732

>  <Name>
design_14

>  <RI>
0

>  <Rbt.Current_Directory>
/home/ziqiaoxu/icml18-jtnn/VAEdesign

>  <Rbt.Executable>
rbdock ($Id: //depot/dev/client3/rdock/2013.1/src/exe/rbdock.cxx#4 $)

>  <Rbt.Library>
libRbt.so (2013.1, Build901 2013/11/27)

>  <Rbt.Parameter_File>
/export/apps/rDock/src/rDock_2013.1_src//data/scripts/dock.prm

>  <Rbt.Receptor>
/home/ziqiaoxu/icml18-jtnn/VAEdesign/targets/RdRp-SARS-CoV-2/pocket_docking.prm

>  <SCORE>
-18.0608

>  <SCORE.INTER>
-17.6928

>  <SCORE.INTER.CONST>
1

>  <SCORE.INTER.POLAR>
-0.959166

>  <SCORE.INTER.REPUL>
0

>  <SCORE.INTER.ROT>
6

>  <SCORE.INTER.VDW>
-25.8316

>  <SCORE.INTER.norm>
-0.737198

>  <SCORE.INTRA>
-0.368082

>  <SCORE.INTRA.DIHEDRAL>
-1.09183

>  <SCORE.INTRA.DIHEDRAL.0>
4.69503

>  <SCORE.INTRA.POLAR>
0

>  <SCORE.INTRA.POLAR.0>
0

>  <SCORE.INTRA.REPUL>
0

>  <SCORE.INTRA.REPUL.0>
0

>  <SCORE.INTRA.VDW>
0.177834

>  <SCORE.INTRA.VDW.0>
-1.61571

>  <SCORE.INTRA.norm>
-0.0153367

>  <SCORE.RESTR>
0

>  <SCORE.RESTR.CAVITY>
0

>  <SCORE.RESTR.norm>
0

>  <SCORE.SYSTEM>
0

>  <SCORE.SYSTEM.CONST>
0

>  <SCORE.SYSTEM.DIHEDRAL>
0

>  <SCORE.SYSTEM.norm>
0

>  <SCORE.heavy>
24

>  <SCORE.norm>
-0.752535

$$$$
design_8
 OpenBabel05252019093D

 25 27  0  0  0  0  0  0  0  0999 V2000
   42.0159  -41.1734    6.1470 C   0  0  0  0  0  0  0  0  0  0  0  0
   41.3117  -39.8569    6.1882 C   0  0  0  0  0  0  0  0  0  0  0  0
   41.1605  -39.1569    7.3799 C   0  0  0  0  0  0  0  0  0  0  0  0
   40.5085  -37.9399    7.4352 C   0  0  0  0  0  0  0  0  0  0  0  0
   39.9992  -37.4178    6.2681 C   0  0  0  0  0  0  0  0  0  0  0  0
   40.1206  -38.0703    5.0520 C   0  0  0  0  0  0  0  0  0  0  0  0
   39.5490  -37.4546    3.8045 C   0  0  0  0  0  0  0  0  0  0  0  0
   40.7194  -37.4884    2.4935 S   0  0  0  0  0  0  0  0  0  0  0  0
   40.2254  -36.8167    1.2547 O   0  0  0  0  0  0  0  0  0  0  0  0
   41.9883  -36.8230    2.9965 O   0  0  0  0  0  0  0  0  0  0  0  0
   41.1505  -39.1283    2.1693 N   0  0  0  0  0  0  0  0  0  0  0  0
   42.0655  -39.1218    1.0373 C   0  0  0  0  0  0  0  0  0  0  0  0
   42.6276  -40.4697    0.7860 C   0  0  0  0  0  0  0  0  0  0  0  0
   43.8747  -40.5983    0.2192 C   0  0  0  0  0  0  0  0  0  0  0  0
   44.3708  -41.8857    0.0081 C   0  0  0  0  0  0  0  0  0  0  0  0
   43.6468  -43.0044    0.3516 C   0  0  0  0  0  0  0  0  0  0  0  0
   44.1906  -44.3000    0.1195 N   0  0  0  0  0  0  0  0  0  0  0  0
   43.5454  -45.5644    0.4368 C   0  0  0  0  0  0  0  0  0  0  0  0
   44.7177  -46.3909    0.9337 C   0  0  0  0  0  0  0  0  0  0  0  0
   45.8225  -46.0321   -0.0403 C   0  0  0  0  0  0  0  0  0  0  0  0
   45.4476  -44.6466   -0.4596 C   0  0  0  0  0  0  0  0  0  0  0  0
   46.0982  -43.8582   -1.2068 O   0  0  0  0  0  0  0  0  0  0  0  0
   42.3977  -42.8236    0.9190 C   0  0  0  0  0  0  0  0  0  0  0  0
   41.8623  -41.5688    1.1482 C   0  0  0  0  0  0  0  0  0  0  0  0
   40.7781  -39.2756    5.0572 C   0  0  0  0  0  0  0  0  0  0  0  0
  1  2  1  0  0  0  0
  2  3  2  0  0  0  0
  3  4  1  0  0  0  0
  4  5  2  0  0  0  0
  5  6  1  0  0  0  0
  6  7  1  0  0  0  0
  6 25  2  0  0  0  0
  7  8  1  0  0  0  0
  8  9  2  0  0  0  0
  8 10  2  0  0  0  0
  8 11  1  0  0  0  0
 11 12  1  0  0  0  0
 12 13  1  0  0  0  0
 13 14  2  0  0  0  0
 14 15  1  0  0  0  0
 15 16  2  0  0  0  0
 16 17  1  0  0  0  0
 16 23  1  0  0  0  0
 17 18  1  0  0  0  0
 18 19  1  0  0  0  0
 19 20  1  0  0  0  0
 20 21  1  0  0  0  0
 21 22  2  0  0  0  0
 21 17  1  0  0  0  0
 23 24  2  0  0  0  0
 24 13  1  0  0  0  0
 25  2  1  0  0  0  0
M  END
>  <CHROM.1>
132.20285907,-176.69253311,177.15731362,172.89549994,-151.24558854,179.64608788
42.32759203,-40.64273798,2.38535205,-3.01317816,1.09485398,-1.08682476

>  <Name>
design_8

>  <RI>
0

>  <Rbt.Current_Directory>
/home/ziqiaoxu/icml18-jtnn/VAEdesign

>  <Rbt.Executable>
rbdock ($Id: //depot/dev/client3/rdock/2013.1/src/exe/rbdock.cxx#4 $)

>  <Rbt.Library>
libRbt.so (2013.1, Build901 2013/11/27)

>  <Rbt.Parameter_File>
/export/apps/rDock/src/rDock_2013.1_src//data/scripts/dock.prm

>  <Rbt.Receptor>
/home/ziqiaoxu/icml18-jtnn/VAEdesign/targets/RdRp-SARS-CoV-2/pocket_docking.prm

>  <SCORE>
-22.0202

>  <SCORE.INTER>
-18.325

>  <SCORE.INTER.CONST>
1

>  <SCORE.INTER.POLAR>
-1.14564

>  <SCORE.INTER.REPUL>
0

>  <SCORE.INTER.ROT>
6

>  <SCORE.INTER.VDW>
-25.8299

>  <SCORE.INTER.norm>
-0.733002

>  <SCORE.INTRA>
-3.69514

>  <SCORE.INTRA.DIHEDRAL>
-9.21513

>  <SCORE.INTRA.DIHEDRAL.0>
10.8534

>  <SCORE.INTRA.POLAR>
0

>  <SCORE.INTRA.POLAR.0>
0

>  <SCORE.INTRA.REPUL>
0

>  <SCORE.INTRA.REPUL.0>
0

>  <SCORE.INTRA.VDW>
0.912422

>  <SCORE.INTRA.VDW.0>
-2.30308

>  <SCORE.INTRA.norm>
-0.147806

>  <SCORE.RESTR>
0

>  <SCORE.RESTR.CAVITY>
0

>  <SCORE.RESTR.norm>
0

>  <SCORE.SYSTEM>
0

>  <SCORE.SYSTEM.CONST>
0

>  <SCORE.SYSTEM.DIHEDRAL>
0

>  <SCORE.SYSTEM.norm>
0

>  <SCORE.heavy>
25

>  <SCORE.norm>
-0.880808

$$$$
design_6
 OpenBabel05252019093D

 22 24  0  0  0  0  0  0  0  0999 V2000
   38.7334  -49.0783    6.5299 C   0  0  0  0  0  0  0  0  0  0  0  0
   39.1639  -47.9977    7.5098 C   0  0  0  0  0  0  0  0  0  0  0  0
   38.3409  -47.6122    8.5434 C   0  0  0  0  0  0  0  0  0  0  0  0
   39.2868  -46.4123    9.3044 S   0  0  0  0  0  0  0  0  0  0  0  0
   40.6523  -46.4729    8.2762 C   0  0  0  0  0  0  0  0  0  0  0  0
   41.9010  -45.6808    8.3414 C   0  0  0  0  0  0  0  0  0  0  0  0
   42.1082  -44.7961    9.3685 C   0  0  0  0  0  0  0  0  0  0  0  0
   43.2832  -44.0365    9.4491 C   0  0  0  0  0  0  0  0  0  0  0  0
   44.2408  -44.1982    8.4616 C   0  0  0  0  0  0  0  0  0  0  0  0
   44.0234  -45.0906    7.4326 C   0  0  0  0  0  0  0  0  0  0  0  0
   45.0799  -45.2446    6.3761 C   0  0  0  0  0  0  0  0  0  0  0  0
   44.5316  -44.6358    5.1263 C   0  0  0  0  0  0  0  0  0  0  0  0
   44.9908  -45.1948    3.9032 N   0  0  0  0  0  0  0  0  0  0  0  0
   44.0981  -45.5613    2.8764 C   0  0  0  0  0  0  0  0  0  0  0  0
   42.8685  -45.3889    3.0517 O   0  0  0  0  0  0  0  0  0  0  0  0
   44.5267  -46.1452    1.5849 C   0  0  2  0  0  0  0  0  0  0  0  0
   45.5969  -45.3273    0.9030 C   0  0  0  0  0  0  0  0  0  0  0  0
   45.3210  -45.5795   -0.5756 C   0  0  0  0  0  0  0  0  0  0  0  0
   44.1795  -46.5879   -0.4971 C   0  0  0  0  0  0  0  0  0  0  0  0
   43.5008  -46.1492    0.6453 O   0  0  0  0  0  0  0  0  0  0  0  0
   42.8484  -45.8440    7.3603 C   0  0  0  0  0  0  0  0  0  0  0  0
   40.3101  -47.4075    7.4072 N   0  0  0  0  0  0  0  0  0  0  0  0
  1  2  1  0  0  0  0
  2  3  2  0  0  0  0
  3  4  1  0  0  0  0
  4  5  1  0  0  0  0
  5  6  1  0  0  0  0
  5 22  2  0  0  0  0
  6  7  2  0  0  0  0
  7  8  1  0  0  0  0
  8  9  2  0  0  0  0
  9 10  1  0  0  0  0
 10 11  1  0  0  0  0
 10 21  2  0  0  0  0
 11 12  1  0  0  0  0
 12 13  1  0  0  0  0
 13 14  1  0  0  0  0
 14 15  2  0  0  0  0
 16 14  1  1  0  0  0
 16 17  1  0  0  0  0
 17 18  1  0  0  0  0
 18 19  1  0  0  0  0
 19 20  1  0  0  0  0
 20 16  1  0  0  0  0
 21  6  1  0  0  0  0
 22  2  1  0  0  0  0
M  END
>  <CHROM.1>
3.48767930,-109.45000267,-150.21372523,131.32788776,-51.81096404,42.54372807
-45.96481781,5.60406716,2.20036084,0.54735067,1.31519595

>  <Name>
design_6

>  <RI>
0

>  <Rbt.Current_Directory>
/home/ziqiaoxu/icml18-jtnn/VAEdesign

>  <Rbt.Executable>
rbdock ($Id: //depot/dev/client3/rdock/2013.1/src/exe/rbdock.cxx#4 $)

>  <Rbt.Library>
libRbt.so (2013.1, Build901 2013/11/27)

>  <Rbt.Parameter_File>
/export/apps/rDock/src/rDock_2013.1_src//data/scripts/dock.prm

>  <Rbt.Receptor>
/home/ziqiaoxu/icml18-jtnn/VAEdesign/targets/RdRp-SARS-CoV-2/pocket_docking.prm

>  <SCORE>
-14.7375

>  <SCORE.INTER>
-15.4288

>  <SCORE.INTER.CONST>
1

>  <SCORE.INTER.POLAR>
0

>  <SCORE.INTER.REPUL>
0

>  <SCORE.INTER.ROT>
5

>  <SCORE.INTER.VDW>
-25.8288

>  <SCORE.INTER.norm>
-0.701309

>  <SCORE.INTRA>
0.691314

>  <SCORE.INTRA.DIHEDRAL>
1.22474

>  <SCORE.INTRA.DIHEDRAL.0>
4.33459

>  <SCORE.INTRA.POLAR>
0

>  <SCORE.INTRA.POLAR.0>
0

>  <SCORE.INTRA.REPUL>
0

>  <SCORE.INTRA.REPUL.0>
0

>  <SCORE.INTRA.VDW>
0.0789455

>  <SCORE.INTRA.VDW.0>
-1.32828

>  <SCORE.INTRA.norm>
0.0314234

>  <SCORE.RESTR>
0

>  <SCORE.RESTR.CAVITY>
0

>  <SCORE.RESTR.norm>
0

>  <SCORE.SYSTEM>
0

>  <SCORE.SYSTEM.CONST>
0

>  <SCORE.SYSTEM.DIHEDRAL>
0

>  <SCORE.SYSTEM.norm>
0

>  <SCORE.heavy>
22

>  <SCORE.norm>
-0.669886

$$$$
design_13
 OpenBabel05252019093D

 21 22  0  0  0  0  0  0  0  0999 V2000
   41.4808  -44.3734   10.7907 C   0  0  0  0  0  0  0  0  0  0  0  0
   40.9490  -45.2678    9.7169 C   0  0  0  0  0  0  0  0  0  0  0  0
   41.7215  -45.6667    8.6504 C   0  0  0  0  0  0  0  0  0  0  0  0
   41.1746  -46.5040    7.6739 C   0  0  0  0  0  0  0  0  0  0  0  0
   39.8892  -46.9548    7.7244 C   0  0  0  0  0  0  0  0  0  0  0  0
   39.1706  -47.9864    6.5651 S   0  0  0  0  0  0  0  0  0  0  0  0
   38.7718  -49.3219    7.1760 O   0  0  0  0  0  0  0  0  0  0  0  0
   40.1437  -48.2953    5.4126 O   0  0  0  0  0  0  0  0  0  0  0  0
   37.7747  -47.3228    5.8346 N   0  0  0  0  0  0  0  0  0  0  0  0
   37.3952  -45.9506    5.8300 C   0  0  0  0  0  0  0  0  0  0  0  0
   36.1731  -45.5531    5.3326 C   0  0  0  0  0  0  0  0  0  0  0  0
   35.8125  -44.2306    5.3520 C   0  0  0  0  0  0  0  0  0  0  0  0
   36.6340  -43.2494    5.8585 C   0  0  0  0  0  0  0  0  0  0  0  0
   36.2072  -41.8402    5.8599 C   0  0  0  0  0  0  0  0  0  0  0  0
   35.1307  -41.4532    5.0232 N   0  0  0  0  0  0  0  0  0  0  0  0
   36.7754  -40.9967    6.5796 O   0  0  0  0  0  0  0  0  0  0  0  0
   37.8528  -43.6383    6.3557 C   0  0  0  0  0  0  0  0  0  0  0  0
   38.2191  -44.9794    6.3363 C   0  0  0  0  0  0  0  0  0  0  0  0
   39.1247  -46.5365    8.8165 C   0  0  0  0  0  0  0  0  0  0  0  0
   37.7373  -46.9832    8.9320 C   0  0  0  0  0  0  0  0  0  0  0  0
   39.6663  -45.7072    9.7840 C   0  0  0  0  0  0  0  0  0  0  0  0
  1  2  1  0  0  0  0
  2  3  2  0  0  0  0
  3  4  1  0  0  0  0
  4  5  2  0  0  0  0
  5  6  1  0  0  0  0
  5 19  1  0  0  0  0
  6  7  2  0  0  0  0
  6  8  2  0  0  0  0
  6  9  1  0  0  0  0
  9 10  1  0  0  0  0
 10 11  2  0  0  0  0
 11 12  1  0  0  0  0
 12 13  2  0  0  0  0
 13 14  1  0  0  0  0
 13 17  1  0  0  0  0
 14 15  1  0  0  0  0
 14 16  2  0  0  0  0
 17 18  2  0  0  0  0
 18 10  1  0  0  0  0
 19 20  1  0  0  0  0
 19 21  2  0  0  0  0
 21  2  1  0  0  0  0
M  END
>  <CHROM.1>
116.65080918,17.63658474,-172.89485969,-17.07570334,38.48836992,-45.54746867
7.06719529,-0.56710645,-0.76897399,0.35462701

>  <Name>
design_13

>  <RI>
0

>  <Rbt.Current_Directory>
/home/ziqiaoxu/icml18-jtnn/VAEdesign

>  <Rbt.Executable>
rbdock ($Id: //depot/dev/client3/rdock/2013.1/src/exe/rbdock.cxx#4 $)

>  <Rbt.Library>
libRbt.so (2013.1, Build901 2013/11/27)

>  <Rbt.Parameter_File>
/export/apps/rDock/src/rDock_2013.1_src//data/scripts/dock.prm

>  <Rbt.Receptor>
/home/ziqiaoxu/icml18-jtnn/VAEdesign/targets/RdRp-SARS-CoV-2/pocket_docking.prm

>  <SCORE>
-22.0734

>  <SCORE.INTER>
-19.749

>  <SCORE.INTER.CONST>
1

>  <SCORE.INTER.POLAR>
-0.979796

>  <SCORE.INTER.REPUL>
0.00181233

>  <SCORE.INTER.ROT>
4

>  <SCORE.INTER.VDW>
-25.8267

>  <SCORE.INTER.norm>
-0.940427

>  <SCORE.INTRA>
-2.32442

>  <SCORE.INTRA.DIHEDRAL>
-4.49468

>  <SCORE.INTRA.DIHEDRAL.0>
8.16745

>  <SCORE.INTRA.POLAR>
0

>  <SCORE.INTRA.POLAR.0>
0

>  <SCORE.INTRA.REPUL>
0

>  <SCORE.INTRA.REPUL.0>
0

>  <SCORE.INTRA.VDW>
-0.0770814

>  <SCORE.INTRA.VDW.0>
-2.20006

>  <SCORE.INTRA.norm>
-0.110687

>  <SCORE.RESTR>
0

>  <SCORE.RESTR.CAVITY>
0

>  <SCORE.RESTR.norm>
0

>  <SCORE.SYSTEM>
0

>  <SCORE.SYSTEM.CONST>
0

>  <SCORE.SYSTEM.DIHEDRAL>
0

>  <SCORE.SYSTEM.norm>
0

>  <SCORE.heavy>
21

>  <SCORE.norm>
-1.05111

$$$$
design_2
 OpenBabel05252019093D

 25 28  0  0  0  0  0  0  0  0999 V2000
   42.5701  -45.6193   15.1245 C   0  0  0  0  0  0  0  0  0  0  0  0
   43.8402  -45.4017   14.4137 C   0  0  0  0  0  0  0  0  0  0  0  0
   45.0535  -45.6634   14.9304 N   0  0  0  0  0  0  0  0  0  0  0  0
   45.9715  -45.3530   14.0270 N   0  0  0  0  0  0  0  0  0  0  0  0
   45.3649  -44.8889   12.9203 C   0  0  0  0  0  0  0  0  0  0  0  0
   46.0586  -44.4489   11.7147 C   0  0  0  0  0  0  0  0  0  0  0  0
   47.4406  -44.4115   11.6345 C   0  0  0  0  0  0  0  0  0  0  0  0
   48.0528  -43.9881   10.4734 C   0  0  0  0  0  0  0  0  0  0  0  0
   47.3424  -43.5901    9.3609 C   0  0  0  0  0  0  0  0  0  0  0  0
   45.9652  -43.6269    9.4396 C   0  0  0  0  0  0  0  0  0  0  0  0
   45.1410  -43.2112    8.2763 C   0  0  0  0  0  0  0  0  0  0  0  0
   44.2575  -44.2685    7.8313 N   0  0  0  0  0  0  0  0  0  0  0  0
   43.0814  -44.5846    8.4028 C   0  0  0  0  0  0  0  0  0  0  0  0
   42.5195  -45.6353    7.7162 C   0  0  0  0  0  0  0  0  0  0  0  0
   41.2521  -46.2999    7.9865 C   0  0  0  0  0  0  0  0  0  0  0  0
   40.7308  -47.2235    7.1108 C   0  0  0  0  0  0  0  0  0  0  0  0
   39.5146  -47.8598    7.3721 C   0  0  0  0  0  0  0  0  0  0  0  0
   38.8177  -47.5767    8.5048 C   0  0  0  0  0  0  0  0  0  0  0  0
   39.3369  -46.6471    9.3917 C   0  0  0  0  0  0  0  0  0  0  0  0
   40.5355  -46.0295    9.1196 C   0  0  0  0  0  0  0  0  0  0  0  0
   41.1669  -44.8628   10.2532 Cl  0  0  0  0  0  0  0  0  0  0  0  0
   43.3813  -45.9357    6.7300 N   0  0  0  0  0  0  0  0  0  0  0  0
   44.4200  -45.0936    6.8258 N   0  0  0  0  0  0  0  0  0  0  0  0
   45.3598  -44.0475   10.5930 C   0  0  0  0  0  0  0  0  0  0  0  0
   44.0651  -44.9219   13.1648 N   0  0  0  0  0  0  0  0  0  0  0  0
  1  2  1  0  0  0  0
  2  3  2  0  0  0  0
  3  4  1  0  0  0  0
  4  5  1  0  0  0  0
  5  6  1  0  0  0  0
  5 25  2  0  0  0  0
  6  7  2  0  0  0  0
  7  8  1  0  0  0  0
  8  9  2  0  0  0  0
  9 10  1  0  0  0  0
 10 11  1  0  0  0  0
 10 24  2  0  0  0  0
 11 12  1  0  0  0  0
 12 13  1  0  0  0  0
 13 14  2  0  0  0  0
 14 15  1  0  0  0  0
 14 22  1  0  0  0  0
 15 16  2  0  0  0  0
 16 17  1  0  0  0  0
 17 18  2  0  0  0  0
 18 19  1  0  0  0  0
 19 20  2  0  0  0  0
 20 21  1  0  0  0  0
 20 15  1  0  0  0  0
 22 23  2  0  0  0  0
 23 12  1  0  0  0  0
 24  6  1  0  0  0  0
 25  2  1  0  0  0  0
M  END
>  <CHROM.1>
-3.30124701,121.81377447,80.22900178,171.32626902,43.51335247,-45.22030895
10.17615029,0.67352326,0.38387339,1.63662435

>  <Name>
design_2

>  <RI>
0

>  <Rbt.Current_Directory>
/home/ziqiaoxu/icml18-jtnn/VAEdesign

>  <Rbt.Executable>
rbdock ($Id: //depot/dev/client3/rdock/2013.1/src/exe/rbdock.cxx#4 $)

>  <Rbt.Library>
libRbt.so (2013.1, Build901 2013/11/27)

>  <Rbt.Parameter_File>
/export/apps/rDock/src/rDock_2013.1_src//data/scripts/dock.prm

>  <Rbt.Receptor>
/home/ziqiaoxu/icml18-jtnn/VAEdesign/targets/RdRp-SARS-CoV-2/pocket_docking.prm

>  <SCORE>
-17.3741

>  <SCORE.INTER>
-19.4235

>  <SCORE.INTER.CONST>
1

>  <SCORE.INTER.POLAR>
-0.916515

>  <SCORE.INTER.REPUL>
0.0226316

>  <SCORE.INTER.ROT>
4

>  <SCORE.INTER.VDW>
-25.8206

>  <SCORE.INTER.norm>
-0.776942

>  <SCORE.INTRA>
2.04948

>  <SCORE.INTRA.DIHEDRAL>
0.333213

>  <SCORE.INTRA.DIHEDRAL.0>
3.11982

>  <SCORE.INTRA.POLAR>
0

>  <SCORE.INTRA.POLAR.0>
0

>  <SCORE.INTRA.REPUL>
0

>  <SCORE.INTRA.REPUL.0>
0

>  <SCORE.INTRA.VDW>
1.88288

>  <SCORE.INTRA.VDW.0>
-0.639393

>  <SCORE.INTRA.norm>
0.0819794

>  <SCORE.RESTR>
0

>  <SCORE.RESTR.CAVITY>
0

>  <SCORE.RESTR.norm>
0

>  <SCORE.SYSTEM>
0

>  <SCORE.SYSTEM.CONST>
0

>  <SCORE.SYSTEM.DIHEDRAL>
0

>  <SCORE.SYSTEM.norm>
0

>  <SCORE.heavy>
25

>  <SCORE.norm>
-0.694962

$$$$
design_12
 OpenBabel05252019093D

 26 28  0  0  0  0  0  0  0  0999 V2000
   43.9455  -45.2193   15.4849 C   0  0  0  0  0  0  0  0  0  0  0  0
   44.3506  -45.4267   14.1117 N   0  0  0  0  0  0  0  0  0  0  0  0
   45.6911  -45.1695   13.6980 C   0  0  0  0  0  0  0  0  0  0  0  0
   46.5116  -44.7569   14.5394 O   0  0  0  0  0  0  0  0  0  0  0  0
   46.1344  -45.3752   12.2980 C   0  0  0  0  0  0  0  0  0  0  0  0
   45.6108  -44.3209   11.3814 C   0  0  0  0  0  0  0  0  0  0  0  0
   45.3328  -44.7667   10.0333 N   0  0  0  0  0  0  0  0  0  0  0  0
   44.2240  -44.3655    9.2519 C   0  0  0  0  0  0  0  0  0  0  0  0
   43.3252  -43.5980    9.5894 O   0  0  0  0  0  0  0  0  0  0  0  0
   44.1199  -44.9267    7.8896 C   0  0  0  0  0  0  0  0  0  0  0  0
   45.1226  -44.8015    6.9533 C   0  0  0  0  0  0  0  0  0  0  0  0
   44.6271  -45.3439    5.8282 N   0  0  0  0  0  0  0  0  0  0  0  0
   45.3257  -45.4149    4.5768 C   0  0  0  0  0  0  0  0  0  0  0  0
   46.6976  -45.2722    4.5805 C   0  0  0  0  0  0  0  0  0  0  0  0
   47.4583  -45.3341    3.4177 C   0  0  0  0  0  0  0  0  0  0  0  0
   46.8033  -45.5447    2.2129 C   0  0  0  0  0  0  0  0  0  0  0  0
   45.4159  -45.6846    2.2341 C   0  0  0  0  0  0  0  0  0  0  0  0
   44.6678  -45.6243    3.3913 C   0  0  0  0  0  0  0  0  0  0  0  0
   43.3919  -45.7885    6.0310 N   0  0  0  0  0  0  0  0  0  0  0  0
   43.0409  -45.5466    7.3109 C   0  0  0  0  0  0  0  0  0  0  0  0
   41.7780  -45.9204    7.9448 C   0  0  0  0  0  0  0  0  0  0  0  0
   41.4494  -45.4079    9.2010 C   0  0  0  0  0  0  0  0  0  0  0  0
   40.2833  -45.7628    9.8286 C   0  0  0  0  0  0  0  0  0  0  0  0
   39.3986  -46.6404    9.2348 C   0  0  0  0  0  0  0  0  0  0  0  0
   39.7008  -47.1556    8.0036 C   0  0  0  0  0  0  0  0  0  0  0  0
   40.8720  -46.7975    7.3738 C   0  0  0  0  0  0  0  0  0  0  0  0
  1  2  1  0  0  0  0
  2  3  1  0  0  0  0
  3  4  2  0  0  0  0
  3  5  1  0  0  0  0
  5  6  1  0  0  0  0
  6  7  1  0  0  0  0
  7  8  1  0  0  0  0
  8  9  2  0  0  0  0
  8 10  1  0  0  0  0
 10 11  2  0  0  0  0
 11 12  1  0  0  0  0
 12 13  1  0  0  0  0
 12 19  1  0  0  0  0
 13 14  2  0  0  0  0
 14 15  1  0  0  0  0
 15 16  2  0  0  0  0
 16 17  1  0  0  0  0
 17 18  2  0  0  0  0
 18 13  1  0  0  0  0
 19 20  2  0  0  0  0
 20 21  1  0  0  0  0
 20 10  1  0  0  0  0
 21 22  2  0  0  0  0
 22 23  1  0  0  0  0
 23 24  2  0  0  0  0
 24 25  1  0  0  0  0
 25 26  2  0  0  0  0
 26 21  1  0  0  0  0
M  END
>  <CHROM.1>
73.42866742,-147.20404763,140.50698284,-56.15612260,18.92187670,13.52146154
44.08316971,-45.36207774,8.47278865,-1.66238888,-0.21267944,-1.63625485

>  <Name>
design_12

>  <RI>
0

>  <Rbt.Current_Directory>
/home/ziqiaoxu/icml18-jtnn/VAEdesign

>  <Rbt.Executable>
rbdock ($Id: //depot/dev/client3/rdock/2013.1/src/exe/rbdock.cxx#4 $)

>  <Rbt.Library>
libRbt.so (2013.1, Build901 2013/11/27)

>  <Rbt.Parameter_File>
/export/apps/rDock/src/rDock_2013.1_src//data/scripts/dock.prm

>  <Rbt.Receptor>
/home/ziqiaoxu/icml18-jtnn/VAEdesign/targets/RdRp-SARS-CoV-2/pocket_docking.prm

>  <SCORE>
-27.7409

>  <SCORE.INTER>
-21.0907

>  <SCORE.INTER.CONST>
1

>  <SCORE.INTER.POLAR>
-1.96178

>  <SCORE.INTER.REPUL>
0

>  <SCORE.INTER.ROT>
6

>  <SCORE.INTER.VDW>
-25.8206

>  <SCORE.INTER.norm>
-0.811179

>  <SCORE.INTRA>
-6.6502

>  <SCORE.INTRA.DIHEDRAL>
-15.4673

>  <SCORE.INTRA.DIHEDRAL.0>
30.3936

>  <SCORE.INTRA.POLAR>
0

>  <SCORE.INTRA.POLAR.0>
0

>  <SCORE.INTRA.REPUL>
0

>  <SCORE.INTRA.REPUL.0>
0

>  <SCORE.INTRA.VDW>
1.08346

>  <SCORE.INTRA.VDW.0>
-1.93761

>  <SCORE.INTRA.norm>
-0.255777

>  <SCORE.RESTR>
0

>  <SCORE.RESTR.CAVITY>
0

>  <SCORE.RESTR.norm>
0

>  <SCORE.SYSTEM>
0

>  <SCORE.SYSTEM.CONST>
0

>  <SCORE.SYSTEM.DIHEDRAL>
0

>  <SCORE.SYSTEM.norm>
0

>  <SCORE.heavy>
26

>  <SCORE.norm>
-1.06696

$$$$
design_17
 OpenBabel05252019093D

 22 23  0  0  0  0  0  0  0  0999 V2000
   38.9675  -49.1270    6.3092 C   0  0  0  0  0  0  0  0  0  0  0  0
   39.4235  -48.0706    7.2663 C   0  0  0  0  0  0  0  0  0  0  0  0
   38.6786  -47.7059    8.3774 C   0  0  0  0  0  0  0  0  0  0  0  0
   39.0784  -46.7374    9.2681 C   0  0  0  0  0  0  0  0  0  0  0  0
   40.2736  -46.0786    9.0741 C   0  0  0  0  0  0  0  0  0  0  0  0
   40.7449  -45.0209   10.0082 C   0  0  0  0  0  0  0  0  0  0  0  0
   39.7516  -43.9808   10.1721 N   0  0  0  0  0  0  0  0  0  0  0  0
   39.9631  -42.7087    9.6404 C   0  0  0  0  0  0  0  0  0  0  0  0
   41.0699  -42.5127    9.0258 O   0  0  0  0  0  0  0  0  0  0  0  0
   38.9957  -41.6113    9.7590 C   0  0  0  0  0  0  0  0  0  0  0  0
   38.9518  -40.8029    8.5768 N   0  0  0  0  0  0  0  0  0  0  0  0
   39.8095  -39.6819    8.4612 C   0  0  0  0  0  0  0  0  0  0  0  0
   40.6093  -39.3957    9.4215 O   0  0  0  0  0  0  0  0  0  0  0  0
   39.7857  -38.8611    7.2611 C   0  0  0  0  0  0  0  0  0  0  0  0
   39.1283  -39.3270    6.1156 C   0  0  0  0  0  0  0  0  0  0  0  0
   39.0643  -38.6105    4.9425 C   0  0  0  0  0  0  0  0  0  0  0  0
   39.6702  -37.3660    4.8627 C   0  0  0  0  0  0  0  0  0  0  0  0
   39.5998  -36.5894    3.5928 C   0  0  0  0  0  0  0  0  0  0  0  0
   40.3197  -36.8962    5.9807 C   0  0  0  0  0  0  0  0  0  0  0  0
   40.3808  -37.6325    7.1728 C   0  0  0  0  0  0  0  0  0  0  0  0
   41.0294  -46.4276    7.9739 C   0  0  0  0  0  0  0  0  0  0  0  0
   40.6186  -47.3994    7.0885 C   0  0  0  0  0  0  0  0  0  0  0  0
  1  2  1  0  0  0  0
  2  3  2  0  0  0  0
  3  4  1  0  0  0  0
  4  5  2  0  0  0  0
  5  6  1  0  0  0  0
  5 21  1  0  0  0  0
  6  7  1  0  0  0  0
  7  8  1  0  0  0  0
  8  9  2  0  0  0  0
  8 10  1  0  0  0  0
 10 11  1  0  0  0  0
 11 12  1  0  0  0  0
 12 13  2  0  0  0  0
 12 14  1  0  0  0  0
 14 15  2  0  0  0  0
 15 16  1  0  0  0  0
 16 17  2  0  0  0  0
 17 18  1  0  0  0  0
 17 19  1  0  0  0  0
 19 20  2  0  0  0  0
 20 14  1  0  0  0  0
 21 22  2  0  0  0  0
 22  2  1  0  0  0  0
M  END
>  <CHROM.1>
-54.55282242,-109.81682153,-142.98005271,-90.00693155,-13.24594086,39.81659413
-42.37917915,7.77031167,1.60878999,1.42168515,2.87904428

>  <Name>
design_17

>  <RI>
0

>  <Rbt.Current_Directory>
/home/ziqiaoxu/icml18-jtnn/VAEdesign

>  <Rbt.Executable>
rbdock ($Id: //depot/dev/client3/rdock/2013.1/src/exe/rbdock.cxx#4 $)

>  <Rbt.Library>
libRbt.so (2013.1, Build901 2013/11/27)

>  <Rbt.Parameter_File>
/export/apps/rDock/src/rDock_2013.1_src//data/scripts/dock.prm

>  <Rbt.Receptor>
/home/ziqiaoxu/icml18-jtnn/VAEdesign/targets/RdRp-SARS-CoV-2/pocket_docking.prm

>  <SCORE>
-19.4376

>  <SCORE.INTER>
-20.1281

>  <SCORE.INTER.CONST>
1

>  <SCORE.INTER.POLAR>
-1.38483

>  <SCORE.INTER.REPUL>
0

>  <SCORE.INTER.ROT>
5

>  <SCORE.INTER.VDW>
-25.8196

>  <SCORE.INTER.norm>
-0.914912

>  <SCORE.INTRA>
0.37453

>  <SCORE.INTRA.DIHEDRAL>
-0.109833

>  <SCORE.INTRA.DIHEDRAL.0>
5.25344

>  <SCORE.INTRA.POLAR>
0

>  <SCORE.INTRA.POLAR.0>
0

>  <SCORE.INTRA.REPUL>
0

>  <SCORE.INTRA.REPUL.0>
0

>  <SCORE.INTRA.VDW>
0.429446

>  <SCORE.INTRA.VDW.0>
-2.05002

>  <SCORE.INTRA.norm>
0.0170241

>  <SCORE.RESTR>
0.315933

>  <SCORE.RESTR.CAVITY>
0.315933

>  <SCORE.RESTR.norm>
0.0143606

>  <SCORE.SYSTEM>
0

>  <SCORE.SYSTEM.CONST>
0

>  <SCORE.SYSTEM.DIHEDRAL>
0

>  <SCORE.SYSTEM.norm>
0

>  <SCORE.heavy>
22

>  <SCORE.norm>
-0.883527

$$$$
design_7
 OpenBabel05252019093D

 26 29  0  0  0  0  0  0  0  0999 V2000
   45.7108  -43.7566   11.8910 C   0  0  0  0  0  0  0  0  0  0  0  0
   45.2666  -44.0687   10.4903 C   0  0  0  0  0  0  0  0  0  0  0  0
   45.9731  -44.0254    9.3605 N   0  0  0  0  0  0  0  0  0  0  0  0
   45.1769  -44.3861    8.3228 C   0  0  0  0  0  0  0  0  0  0  0  0
   45.3880  -44.5051    7.0082 N   0  0  0  0  0  0  0  0  0  0  0  0
   44.4206  -44.8843    6.1612 C   0  0  0  0  0  0  0  0  0  0  0  0
   44.6932  -44.9969    4.7237 C   0  0  0  0  0  0  0  0  0  0  0  0
   43.1371  -45.1628    6.7087 C   0  0  0  0  0  0  0  0  0  0  0  0
   42.1263  -45.4933    5.7384 C   0  0  0  0  0  0  0  0  0  0  0  0
   42.3716  -46.5081    4.9982 O   0  0  0  0  0  0  0  0  0  0  0  0
   40.9095  -44.8218    5.5036 N   0  0  0  0  0  0  0  0  0  0  0  0
   39.9906  -45.2679    4.4808 C   0  0  0  0  0  0  0  0  0  0  0  0
   38.5721  -45.2046    4.8754 C   0  0  0  0  0  0  0  0  0  0  0  0
   37.7532  -46.3179    4.8648 C   0  0  0  0  0  0  0  0  0  0  0  0
   36.4188  -46.2479    5.2396 C   0  0  0  0  0  0  0  0  0  0  0  0
   35.8803  -45.0484    5.6345 C   0  0  0  0  0  0  0  0  0  0  0  0
   36.7187  -43.9373    5.6394 C   0  0  0  0  0  0  0  0  0  0  0  0
   38.0074  -44.0494    5.2682 N   0  0  0  0  0  0  0  0  0  0  0  0
   42.9199  -45.0529    8.0183 C   0  0  0  0  0  0  0  0  0  0  0  0
   41.7070  -45.5042    8.6956 C   0  0  0  0  0  0  0  0  0  0  0  0
   41.1536  -45.1961    9.9019 C   0  0  0  0  0  0  0  0  0  0  0  0
   39.9560  -45.7018   10.2130 C   0  0  0  0  0  0  0  0  0  0  0  0
   39.3511  -46.5067    9.2872 C   0  0  0  0  0  0  0  0  0  0  0  0
   40.4723  -46.5331    8.0122 S   0  0  0  0  0  0  0  0  0  0  0  0
   43.9627  -44.6541    8.8311 N   0  0  0  0  0  0  0  0  0  0  0  0
   44.0143  -44.4645   10.1301 N   0  0  0  0  0  0  0  0  0  0  0  0
  1  2  1  0  0  0  0
  2  3  1  0  0  0  0
  3  4  2  0  0  0  0
  4  5  1  0  0  0  0
  5  6  2  0  0  0  0
  6  7  1  0  0  0  0
  6  8  1  0  0  0  0
  8  9  1  0  0  0  0
  8 19  2  0  0  0  0
  9 10  2  0  0  0  0
  9 11  1  0  0  0  0
 11 12  1  0  0  0  0
 12 13  1  0  0  0  0
 13 14  2  0  0  0  0
 14 15  1  0  0  0  0
 15 16  2  0  0  0  0
 16 17  1  0  0  0  0
 17 18  2  0  0  0  0
 18 13  1  0  0  0  0
 19 20  1  0  0  0  0
 19 25  1  0  0  0  0
 20 21  2  0  0  0  0
 21 22  1  0  0  0  0
 22 23  2  0  0  0  0
 23 24  1  0  0  0  0
 24 20  1  0  0  0  0
 25 26  1  0  0  0  0
 25  4  1  0  0  0  0
 26  2  2  0  0  0  0
M  END
>  <CHROM.1>
58.76520982,139.65226145,-122.29999012,-160.61428459,41.59070369,-45.15671324
7.32996866,0.47836066,0.12450102,1.55088516

>  <Name>
design_7

>  <RI>
0

>  <Rbt.Current_Directory>
/home/ziqiaoxu/icml18-jtnn/VAEdesign

>  <Rbt.Executable>
rbdock ($Id: //depot/dev/client3/rdock/2013.1/src/exe/rbdock.cxx#4 $)

>  <Rbt.Library>
libRbt.so (2013.1, Build901 2013/11/27)

>  <Rbt.Parameter_File>
/export/apps/rDock/src/rDock_2013.1_src//data/scripts/dock.prm

>  <Rbt.Receptor>
/home/ziqiaoxu/icml18-jtnn/VAEdesign/targets/RdRp-SARS-CoV-2/pocket_docking.prm

>  <SCORE>
-17.2781

>  <SCORE.INTER>
-16.4187

>  <SCORE.INTER.CONST>
1

>  <SCORE.INTER.POLAR>
0

>  <SCORE.INTER.REPUL>
0

>  <SCORE.INTER.ROT>
4

>  <SCORE.INTER.VDW>
-25.8187

>  <SCORE.INTER.norm>
-0.631489

>  <SCORE.INTRA>
-0.85939

>  <SCORE.INTRA.DIHEDRAL>
0.950282

>  <SCORE.INTRA.DIHEDRAL.0>
11.7308

>  <SCORE.INTRA.POLAR>
0

>  <SCORE.INTRA.POLAR.0>
0

>  <SCORE.INTRA.REPUL>
0

>  <SCORE.INTRA.REPUL.0>
0

>  <SCORE.INTRA.VDW>
-1.33453

>  <SCORE.INTRA.VDW.0>
-1.31458

>  <SCORE.INTRA.norm>
-0.0330535

>  <SCORE.RESTR>
0

>  <SCORE.RESTR.CAVITY>
0

>  <SCORE.RESTR.norm>
0

>  <SCORE.SYSTEM>
0

>  <SCORE.SYSTEM.CONST>
0

>  <SCORE.SYSTEM.DIHEDRAL>
0

>  <SCORE.SYSTEM.norm>
0

>  <SCORE.heavy>
26

>  <SCORE.norm>
-0.664543

$$$$
design_8
 OpenBabel05252019093D

 25 27  0  0  0  0  0  0  0  0999 V2000
   40.5377  -37.7926    1.4514 C   0  0  0  0  0  0  0  0  0  0  0  0
   40.3884  -38.5740    2.6788 N   0  0  0  0  0  0  0  0  0  0  0  0
   40.3857  -37.8976    3.9068 C   0  0  0  0  0  0  0  0  0  0  0  0
   40.5126  -36.6344    3.9209 O   0  0  0  0  0  0  0  0  0  0  0  0
   40.2383  -38.6398    5.1636 C   0  0  0  0  0  0  0  0  0  0  0  0
   40.1361  -40.0009    5.2400 C   0  0  0  0  0  0  0  0  0  0  0  0
   40.0012  -40.6416    6.4472 C   0  0  0  0  0  0  0  0  0  0  0  0
   39.9578  -39.9656    7.6759 C   0  0  0  0  0  0  0  0  0  0  0  0
   39.8188  -40.6820    8.8829 N   0  0  0  0  0  0  0  0  0  0  0  0
   39.8149  -42.0599    9.0961 C   0  0  0  0  0  0  0  0  0  0  0  0
   39.9397  -42.9115    8.2123 O   0  0  0  0  0  0  0  0  0  0  0  0
   39.6434  -42.5405   10.5266 C   0  0  0  0  0  0  0  0  0  0  0  0
   40.5799  -43.6824   10.7376 C   0  0  0  0  0  0  0  0  0  0  0  0
   40.1518  -44.9243   10.1662 N   0  0  0  0  0  0  0  0  0  0  0  0
   40.7792  -45.5583    9.0614 C   0  0  0  0  0  0  0  0  0  0  0  0
   41.9759  -45.1370    8.6323 N   0  0  0  0  0  0  0  0  0  0  0  0
   42.6768  -45.6305    7.6258 C   0  0  0  0  0  0  0  0  0  0  0  0
   42.1039  -46.6768    6.9700 N   0  0  0  0  0  0  0  0  0  0  0  0
   40.8905  -47.1639    7.3439 C   0  0  0  0  0  0  0  0  0  0  0  0
   39.8909  -48.4229    6.7772 S   0  0  0  0  0  0  0  0  0  0  0  0
   38.5935  -48.2617    7.8727 C   0  0  0  0  0  0  0  0  0  0  0  0
   38.9847  -47.2145    8.6601 C   0  0  0  0  0  0  0  0  0  0  0  0
   40.1799  -46.6436    8.3846 C   0  0  0  0  0  0  0  0  0  0  0  0
   40.0615  -38.6024    7.5800 C   0  0  0  0  0  0  0  0  0  0  0  0
   40.1989  -37.9366    6.3651 C   0  0  0  0  0  0  0  0  0  0  0  0
  1  2  1  0  0  0  0
  2  3  1  0  0  0  0
  3  4  2  0  0  0  0
  3  5  1  0  0  0  0
  5  6  2  0  0  0  0
  6  7  1  0  0  0  0
  7  8  2  0  0  0  0
  8  9  1  0  0  0  0
  8 24  1  0  0  0  0
  9 10  1  0  0  0  0
 10 11  2  0  0  0  0
 10 12  1  0  0  0  0
 12 13  1  0  0  0  0
 13 14  1  0  0  0  0
 14 15  1  0  0  0  0
 15 16  2  0  0  0  0
 16 17  1  0  0  0  0
 17 18  2  0  0  0  0
 18 19  1  0  0  0  0
 19 20  1  0  0  0  0
 20 21  1  0  0  0  0
 21 22  2  0  0  0  0
 22 23  1  0  0  0  0
 23 15  1  0  0  0  0
 23 19  2  0  0  0  0
 24 25  2  0  0  0  0
 25  5  1  0  0  0  0
M  END
>  <CHROM.1>
1.98727970,5.71381739,-138.76646404,-76.93607693,111.29581619,12.10836109
40.31489791,-42.81198711,7.12939102,-1.56636085,-1.48759712,2.74276551

>  <Name>
design_8

>  <RI>
0

>  <Rbt.Current_Directory>
/home/ziqiaoxu/icml18-jtnn/VAEdesign

>  <Rbt.Executable>
rbdock ($Id: //depot/dev/client3/rdock/2013.1/src/exe/rbdock.cxx#4 $)

>  <Rbt.Library>
libRbt.so (2013.1, Build901 2013/11/27)

>  <Rbt.Parameter_File>
/export/apps/rDock/src/rDock_2013.1_src//data/scripts/dock.prm

>  <Rbt.Receptor>
/home/ziqiaoxu/icml18-jtnn/VAEdesign/targets/RdRp-SARS-CoV-2/pocket_docking.prm

>  <SCORE>
-24.7802

>  <SCORE.INTER>
-24.2823

>  <SCORE.INTER.CONST>
1

>  <SCORE.INTER.POLAR>
-2.9899

>  <SCORE.INTER.REPUL>
0.059591

>  <SCORE.INTER.ROT>
6

>  <SCORE.INTER.VDW>
-25.8146

>  <SCORE.INTER.norm>
-0.971294

>  <SCORE.INTRA>
-0.497866

>  <SCORE.INTRA.DIHEDRAL>
2.9369

>  <SCORE.INTRA.DIHEDRAL.0>
3.55546

>  <SCORE.INTRA.POLAR>
0

>  <SCORE.INTRA.POLAR.0>
0

>  <SCORE.INTRA.REPUL>
0

>  <SCORE.INTRA.REPUL.0>
0

>  <SCORE.INTRA.VDW>
-1.96632

>  <SCORE.INTRA.VDW.0>
1.12584

>  <SCORE.INTRA.norm>
-0.0199146

>  <SCORE.RESTR>
0

>  <SCORE.RESTR.CAVITY>
0

>  <SCORE.RESTR.norm>
0

>  <SCORE.SYSTEM>
0

>  <SCORE.SYSTEM.CONST>
0

>  <SCORE.SYSTEM.DIHEDRAL>
0

>  <SCORE.SYSTEM.norm>
0

>  <SCORE.heavy>
25

>  <SCORE.norm>
-0.991209

$$$$
design_6
 OpenBabel05252019093D

 25 28  0  0  0  0  0  0  0  0999 V2000
   46.5691  -44.4103    5.7751 C   0  0  0  0  0  0  0  0  0  0  0  0
   45.2987  -44.7404    6.5103 C   0  0  0  0  0  0  0  0  0  0  0  0
   45.1234  -44.3005    7.8059 C   0  0  0  0  0  0  0  0  0  0  0  0
   43.9464  -44.6000    8.5025 C   0  0  0  0  0  0  0  0  0  0  0  0
   42.9753  -45.3393    7.8668 C   0  0  0  0  0  0  0  0  0  0  0  0
   41.7269  -45.6728    8.5670 C   0  0  0  0  0  0  0  0  0  0  0  0
   41.3769  -45.3203    9.8120 N   0  0  0  0  0  0  0  0  0  0  0  0
   40.1814  -45.7931   10.1219 N   0  0  0  0  0  0  0  0  0  0  0  0
   39.7306  -46.4648    9.0778 C   0  0  0  0  0  0  0  0  0  0  0  0
   38.4713  -47.1799    8.8788 C   0  0  0  0  0  0  0  0  0  0  0  0
   38.1944  -47.5699    7.5252 N   0  0  0  0  0  0  0  0  0  0  0  0
   37.7728  -46.8188    6.5366 C   0  0  0  0  0  0  0  0  0  0  0  0
   37.3940  -45.4324    6.3312 C   0  0  0  0  0  0  0  0  0  0  0  0
   38.0881  -44.3848    6.8246 C   0  0  0  0  0  0  0  0  0  0  0  0
   37.7109  -43.0796    6.6201 N   0  0  0  0  0  0  0  0  0  0  0  0
   36.6261  -42.8040    5.9132 C   0  0  0  0  0  0  0  0  0  0  0  0
   35.9188  -43.8721    5.4099 C   0  0  0  0  0  0  0  0  0  0  0  0
   36.2764  -45.1442    5.6028 N   0  0  0  0  0  0  0  0  0  0  0  0
   37.7001  -47.7096    5.4629 N   0  0  0  0  0  0  0  0  0  0  0  0
   38.0606  -48.8767    5.8451 O   0  0  0  0  0  0  0  0  0  0  0  0
   38.3820  -48.8788    7.1043 C   0  0  0  0  0  0  0  0  0  0  0  0
   38.7811  -49.8266    7.8307 O   0  0  0  0  0  0  0  0  0  0  0  0
   40.6931  -46.3912    8.1068 N   0  0  0  0  0  0  0  0  0  0  0  0
   43.1757  -45.7657    6.5742 C   0  0  0  0  0  0  0  0  0  0  0  0
   44.3305  -45.4759    5.8805 C   0  0  0  0  0  0  0  0  0  0  0  0
  1  2  1  0  0  0  0
  2  3  2  0  0  0  0
  3  4  1  0  0  0  0
  4  5  2  0  0  0  0
  5  6  1  0  0  0  0
  5 24  1  0  0  0  0
  6  7  2  0  0  0  0
  7  8  1  0  0  0  0
  8  9  1  0  0  0  0
  9 10  1  0  0  0  0
  9 23  2  0  0  0  0
 10 11  1  0  0  0  0
 11 12  1  0  0  0  0
 12 13  1  0  0  0  0
 12 19  2  0  0  0  0
 13 14  2  0  0  0  0
 14 15  1  0  0  0  0
 15 16  2  0  0  0  0
 16 17  1  0  0  0  0
 17 18  2  0  0  0  0
 18 13  1  0  0  0  0
 19 20  1  0  0  0  0
 20 21  1  0  0  0  0
 21 22  2  0  0  0  0
 21 11  1  0  0  0  0
 23  6  1  0  0  0  0
 24 25  2  0  0  0  0
 25  2  1  0  0  0  0
M  END
>  <CHROM.1>
0.88467622,167.85345906,-76.62704256,43.73987875,40.14779861,-45.88445017
7.22415838,0.13607692,-0.15299162,-0.33196621

>  <Name>
design_6

>  <RI>
0

>  <Rbt.Current_Directory>
/home/ziqiaoxu/icml18-jtnn/VAEdesign

>  <Rbt.Executable>
rbdock ($Id: //depot/dev/client3/rdock/2013.1/src/exe/rbdock.cxx#4 $)

>  <Rbt.Library>
libRbt.so (2013.1, Build901 2013/11/27)

>  <Rbt.Parameter_File>
/export/apps/rDock/src/rDock_2013.1_src//data/scripts/dock.prm

>  <Rbt.Receptor>
/home/ziqiaoxu/icml18-jtnn/VAEdesign/targets/RdRp-SARS-CoV-2/pocket_docking.prm

>  <SCORE>
-15.1594

>  <SCORE.INTER>
-17.8611

>  <SCORE.INTER.CONST>
1

>  <SCORE.INTER.POLAR>
-0.836995

>  <SCORE.INTER.REPUL>
0.279837

>  <SCORE.INTER.ROT>
4

>  <SCORE.INTER.VDW>
-25.8145

>  <SCORE.INTER.norm>
-0.714445

>  <SCORE.INTRA>
2.70175

>  <SCORE.INTRA.DIHEDRAL>
6.03002

>  <SCORE.INTRA.DIHEDRAL.0>
3.79521

>  <SCORE.INTRA.POLAR>
0

>  <SCORE.INTRA.POLAR.0>
0

>  <SCORE.INTRA.REPUL>
0

>  <SCORE.INTRA.REPUL.0>
0

>  <SCORE.INTRA.VDW>
-0.313258

>  <SCORE.INTRA.VDW.0>
-2.29887

>  <SCORE.INTRA.norm>
0.10807

>  <SCORE.RESTR>
0

>  <SCORE.RESTR.CAVITY>
0

>  <SCORE.RESTR.norm>
0

>  <SCORE.SYSTEM>
0

>  <SCORE.SYSTEM.CONST>
0

>  <SCORE.SYSTEM.DIHEDRAL>
0

>  <SCORE.SYSTEM.norm>
0

>  <SCORE.heavy>
25

>  <SCORE.norm>
-0.606375

$$$$
design_1
 OpenBabel05252019093D

 24 26  0  0  0  0  0  0  0  0999 V2000
   36.2122  -44.1111    5.3221 C   0  0  0  0  0  0  0  0  0  0  0  0
   36.9074  -45.2951    5.8850 C   0  0  0  0  0  0  0  0  0  0  0  0
   37.0779  -46.4499    5.1501 C   0  0  0  0  0  0  0  0  0  0  0  0
   37.7255  -47.5571    5.6705 C   0  0  0  0  0  0  0  0  0  0  0  0
   38.2317  -47.5639    6.9448 C   0  0  0  0  0  0  0  0  0  0  0  0
   38.9258  -48.7583    7.4957 C   0  0  0  0  0  0  0  0  0  0  0  0
   38.0654  -46.3981    7.7020 C   0  0  0  0  0  0  0  0  0  0  0  0
   38.6254  -46.4484    9.0029 N   0  0  0  0  0  0  0  0  0  0  0  0
   40.1155  -45.7842    9.5029 S   0  0  0  0  0  0  0  0  0  0  0  0
   41.2647  -46.3257    8.6791 O   0  0  0  0  0  0  0  0  0  0  0  0
   40.4283  -46.1875   10.9394 O   0  0  0  0  0  0  0  0  0  0  0  0
   40.1362  -44.0568    9.3279 C   0  0  0  0  0  0  0  0  0  0  0  0
   39.5775  -43.2677   10.3370 C   0  0  0  0  0  0  0  0  0  0  0  0
   39.5686  -41.8820   10.2472 C   0  0  0  0  0  0  0  0  0  0  0  0
   40.1235  -41.2584    9.1359 C   0  0  0  0  0  0  0  0  0  0  0  0
   40.1235  -39.9021    9.0311 N   0  0  0  0  0  0  0  0  0  0  0  0
   40.6648  -39.3016    7.9476 C   0  0  0  0  0  0  0  0  0  0  0  0
   40.6708  -38.0675    7.8410 O   0  0  0  0  0  0  0  0  0  0  0  0
   41.2196  -40.0691    6.9444 C   0  0  0  0  0  0  0  0  0  0  0  0
   41.7270  -39.5090    5.9292 O   0  0  0  0  0  0  0  0  0  0  0  0
   41.2174  -41.4027    7.0516 N   0  0  0  0  0  0  0  0  0  0  0  0
   40.6792  -42.0213    8.1305 C   0  0  0  0  0  0  0  0  0  0  0  0
   40.6754  -43.4041    8.2447 C   0  0  0  0  0  0  0  0  0  0  0  0
   37.4196  -45.2978    7.1772 C   0  0  0  0  0  0  0  0  0  0  0  0
  1  2  1  0  0  0  0
  2  3  2  0  0  0  0
  3  4  1  0  0  0  0
  4  5  2  0  0  0  0
  5  6  1  0  0  0  0
  5  7  1  0  0  0  0
  7  8  1  0  0  0  0
  7 24  2  0  0  0  0
  8  9  1  0  0  0  0
  9 10  2  0  0  0  0
  9 11  2  0  0  0  0
  9 12  1  0  0  0  0
 12 13  2  0  0  0  0
 13 14  1  0  0  0  0
 14 15  2  0  0  0  0
 15 16  1  0  0  0  0
 16 17  1  0  0  0  0
 17 18  2  0  0  0  0
 17 19  1  0  0  0  0
 19 20  2  0  0  0  0
 19 21  1  0  0  0  0
 21 22  1  0  0  0  0
 22 23  2  0  0  0  0
 22 15  1  0  0  0  0
 23 12  1  0  0  0  0
 24  2  1  0  0  0  0
M  END
>  <CHROM.1>
100.05577963,-57.02097693,83.22572993,39.54730395,-43.85617205,8.00133565
2.16491971,0.95878509,2.69799628

>  <Name>
design_1

>  <RI>
0

>  <Rbt.Current_Directory>
/home/ziqiaoxu/icml18-jtnn/VAEdesign

>  <Rbt.Executable>
rbdock ($Id: //depot/dev/client3/rdock/2013.1/src/exe/rbdock.cxx#4 $)

>  <Rbt.Library>
libRbt.so (2013.1, Build901 2013/11/27)

>  <Rbt.Parameter_File>
/export/apps/rDock/src/rDock_2013.1_src//data/scripts/dock.prm

>  <Rbt.Receptor>
/home/ziqiaoxu/icml18-jtnn/VAEdesign/targets/RdRp-SARS-CoV-2/pocket_docking.prm

>  <SCORE>
-19.9286

>  <SCORE.INTER>
-21.0709

>  <SCORE.INTER.CONST>
1

>  <SCORE.INTER.POLAR>
-1.07582

>  <SCORE.INTER.REPUL>
0

>  <SCORE.INTER.ROT>
3

>  <SCORE.INTER.VDW>
-25.8131

>  <SCORE.INTER.norm>
-0.877953

>  <SCORE.INTRA>
1.14222

>  <SCORE.INTRA.DIHEDRAL>
2.71326

>  <SCORE.INTRA.DIHEDRAL.0>
12.0519

>  <SCORE.INTRA.POLAR>
0

>  <SCORE.INTRA.POLAR.0>
0

>  <SCORE.INTRA.REPUL>
0

>  <SCORE.INTRA.REPUL.0>
0

>  <SCORE.INTRA.VDW>
-0.214414

>  <SCORE.INTRA.VDW.0>
-2.40099

>  <SCORE.INTRA.norm>
0.0475924

>  <SCORE.RESTR>
0

>  <SCORE.RESTR.CAVITY>
0

>  <SCORE.RESTR.norm>
0

>  <SCORE.SYSTEM>
0

>  <SCORE.SYSTEM.CONST>
0

>  <SCORE.SYSTEM.DIHEDRAL>
0

>  <SCORE.SYSTEM.norm>
0

>  <SCORE.heavy>
24

>  <SCORE.norm>
-0.83036

$$$$
design_14
 OpenBabel05252019093D

 23 24  0  0  0  0  0  0  0  0999 V2000
   44.3761  -43.6994    5.2640 O   0  0  0  0  0  0  0  0  0  0  0  0
   44.8629  -44.7385    5.8128 C   0  0  0  0  0  0  0  0  0  0  0  0
   44.4016  -45.0797    7.1766 C   0  0  0  0  0  0  0  0  0  0  0  0
   43.1213  -45.7354    7.1277 N   0  0  0  0  0  0  0  0  0  0  0  0
   42.2313  -45.6894    8.2322 C   0  0  0  0  0  0  0  0  0  0  0  0
   42.5972  -45.0577    9.2542 O   0  0  0  0  0  0  0  0  0  0  0  0
   40.9254  -46.3453    8.2116 C   0  0  0  0  0  0  0  0  0  0  0  0
   40.6358  -47.3617    7.3334 C   0  0  0  0  0  0  0  0  0  0  0  0
   39.3942  -47.9694    7.3293 C   0  0  0  0  0  0  0  0  0  0  0  0
   38.4334  -47.5448    8.2234 C   0  0  0  0  0  0  0  0  0  0  0  0
   38.7175  -46.5244    9.1082 C   0  0  0  0  0  0  0  0  0  0  0  0
   39.9465  -45.9379    9.0973 C   0  0  0  0  0  0  0  0  0  0  0  0
   40.3118  -44.6417   10.2193 Cl  0  0  0  0  0  0  0  0  0  0  0  0
   45.8175  -45.5522    5.1497 N   0  0  0  0  0  0  0  0  0  0  0  0
   46.2279  -45.1595    3.8120 C   0  0  0  0  0  0  0  0  0  0  0  0
   46.1338  -46.3874    2.9525 C   0  0  0  0  0  0  0  0  0  0  0  0
   45.3139  -46.2587    1.7632 C   0  0  0  0  0  0  0  0  0  0  0  0
   45.9091  -46.4254    0.5249 C   0  0  0  0  0  0  0  0  0  0  0  0
   45.1688  -46.3126   -0.6532 C   0  0  0  0  0  0  0  0  0  0  0  0
   43.8206  -46.0290   -0.5505 C   0  0  0  0  0  0  0  0  0  0  0  0
   43.2124  -45.8593    0.6936 C   0  0  0  0  0  0  0  0  0  0  0  0
   43.9678  -45.9762    1.8409 C   0  0  0  0  0  0  0  0  0  0  0  0
   43.4556  -45.8269    3.0846 F   0  0  0  0  0  0  0  0  0  0  0  0
  1  2  2  0  0  0  0
  2  3  1  0  0  0  0
  2 14  1  0  0  0  0
  3  4  1  0  0  0  0
  4  5  1  0  0  0  0
  5  6  2  0  0  0  0
  5  7  1  0  0  0  0
  7  8  2  0  0  0  0
  8  9  1  0  0  0  0
  9 10  2  0  0  0  0
 10 11  1  0  0  0  0
 11 12  2  0  0  0  0
 12 13  1  0  0  0  0
 12  7  1  0  0  0  0
 14 15  1  0  0  0  0
 15 16  1  0  0  0  0
 16 17  1  0  0  0  0
 17 18  2  0  0  0  0
 18 19  1  0  0  0  0
 19 20  2  0  0  0  0
 20 21  1  0  0  0  0
 21 22  2  0  0  0  0
 22 23  1  0  0  0  0
 22 17  1  0  0  0  0
M  END
>  <CHROM.1>
79.78998567,-154.56980205,20.32700291,-131.36198379,124.94575040,118.39002629
42.87946634,-45.80247728,5.58369597,-0.96667673,0.40155945,1.29896844

>  <Name>
design_14

>  <RI>
0

>  <Rbt.Current_Directory>
/home/ziqiaoxu/icml18-jtnn/VAEdesign

>  <Rbt.Executable>
rbdock ($Id: //depot/dev/client3/rdock/2013.1/src/exe/rbdock.cxx#4 $)

>  <Rbt.Library>
libRbt.so (2013.1, Build901 2013/11/27)

>  <Rbt.Parameter_File>
/export/apps/rDock/src/rDock_2013.1_src//data/scripts/dock.prm

>  <Rbt.Receptor>
/home/ziqiaoxu/icml18-jtnn/VAEdesign/targets/RdRp-SARS-CoV-2/pocket_docking.prm

>  <SCORE>
-18.2316

>  <SCORE.INTER>
-17.4525

>  <SCORE.INTER.CONST>
1

>  <SCORE.INTER.POLAR>
-0.894427

>  <SCORE.INTER.REPUL>
0

>  <SCORE.INTER.ROT>
6

>  <SCORE.INTER.VDW>
-25.8115

>  <SCORE.INTER.norm>
-0.758806

>  <SCORE.INTRA>
-0.779071

>  <SCORE.INTRA.DIHEDRAL>
-5.82729

>  <SCORE.INTRA.DIHEDRAL.0>
17.2558

>  <SCORE.INTRA.POLAR>
0

>  <SCORE.INTRA.POLAR.0>
0

>  <SCORE.INTRA.REPUL>
0

>  <SCORE.INTRA.REPUL.0>
0

>  <SCORE.INTRA.VDW>
2.13457

>  <SCORE.INTRA.VDW.0>
-1.58901

>  <SCORE.INTRA.norm>
-0.0338727

>  <SCORE.RESTR>
0

>  <SCORE.RESTR.CAVITY>
0

>  <SCORE.RESTR.norm>
0

>  <SCORE.SYSTEM>
0

>  <SCORE.SYSTEM.CONST>
0

>  <SCORE.SYSTEM.DIHEDRAL>
0

>  <SCORE.SYSTEM.norm>
0

>  <SCORE.heavy>
23

>  <SCORE.norm>
-0.792679

$$$$
design_5
 OpenBabel05252019093D

 24 27  0  0  0  0  0  0  0  0999 V2000
   41.6388  -44.4255   10.3481 C   0  0  0  0  0  0  0  0  0  0  0  0
   41.0035  -45.4348    9.4618 C   0  0  0  0  0  0  0  0  0  0  0  0
   39.8355  -46.1079    9.6926 N   0  0  0  0  0  0  0  0  0  0  0  0
   39.5780  -46.9362    8.6739 C   0  0  0  0  0  0  0  0  0  0  0  0
   38.5730  -47.8241    8.3866 C   0  0  0  0  0  0  0  0  0  0  0  0
   38.5672  -48.5729    7.2150 C   0  0  0  0  0  0  0  0  0  0  0  0
   39.5825  -48.4309    6.3173 C   0  0  0  0  0  0  0  0  0  0  0  0
   40.6035  -47.5399    6.5918 C   0  0  0  0  0  0  0  0  0  0  0  0
   40.6147  -46.7877    7.7627 C   0  0  0  0  0  0  0  0  0  0  0  0
   41.4981  -45.8572    8.2512 C   0  0  0  0  0  0  0  0  0  0  0  0
   42.7271  -45.3902    7.6290 C   0  0  0  0  0  0  0  0  0  0  0  0
   43.3475  -45.9002    6.5330 N   0  0  0  0  0  0  0  0  0  0  0  0
   44.4109  -45.1966    6.3084 O   0  0  0  0  0  0  0  0  0  0  0  0
   44.5220  -44.2547    7.1954 C   0  0  0  0  0  0  0  0  0  0  0  0
   45.6371  -43.2375    7.2530 C   0  0  0  0  0  0  0  0  0  0  0  0
   45.8830  -42.9274    8.6769 C   0  0  0  0  0  0  0  0  0  0  0  0
   45.8002  -41.7538    9.1205 O   0  0  0  0  0  0  0  0  0  0  0  0
   46.2195  -43.9415    9.5865 N   0  0  0  0  0  0  0  0  0  0  0  0
   46.4746  -43.7194   10.9917 C   0  0  0  0  0  0  0  0  0  0  0  0
   45.2498  -44.0469   11.8341 C   0  0  0  0  0  0  0  0  0  0  0  0
   45.6640  -45.1978   12.7261 C   0  0  0  0  0  0  0  0  0  0  0  0
   46.6820  -45.9020   11.8400 C   0  0  0  0  0  0  0  0  0  0  0  0
   47.5459  -44.7038   11.4247 C   0  0  0  0  0  0  0  0  0  0  0  0
   43.4834  -44.3576    8.0273 N   0  0  0  0  0  0  0  0  0  0  0  0
  1  2  1  0  0  0  0
  2  3  1  0  0  0  0
  3  4  1  0  0  0  0
  4  5  2  0  0  0  0
  5  6  1  0  0  0  0
  6  7  2  0  0  0  0
  7  8  1  0  0  0  0
  8  9  2  0  0  0  0
  9 10  1  0  0  0  0
  9  4  1  0  0  0  0
 10 11  1  0  0  0  0
 10  2  2  0  0  0  0
 11 12  2  0  0  0  0
 12 13  1  0  0  0  0
 13 14  1  0  0  0  0
 14 15  1  0  0  0  0
 14 24  2  0  0  0  0
 15 16  1  0  0  0  0
 16 17  2  0  0  0  0
 16 18  1  0  0  0  0
 18 19  1  0  0  0  0
 19 20  1  0  0  0  0
 20 21  1  0  0  0  0
 21 22  1  0  0  0  0
 22 23  1  0  0  0  0
 23 19  1  0  0  0  0
 24 11  1  0  0  0  0
M  END
>  <CHROM.1>
170.34166726,-146.71780908,-122.44468693,98.76233628,43.22263823,-45.29723401
8.86501914,2.85397743,-0.52623959,-1.43631335

>  <Name>
design_5

>  <RI>
0

>  <Rbt.Current_Directory>
/home/ziqiaoxu/icml18-jtnn/VAEdesign

>  <Rbt.Executable>
rbdock ($Id: //depot/dev/client3/rdock/2013.1/src/exe/rbdock.cxx#4 $)

>  <Rbt.Library>
libRbt.so (2013.1, Build901 2013/11/27)

>  <Rbt.Parameter_File>
/export/apps/rDock/src/rDock_2013.1_src//data/scripts/dock.prm

>  <Rbt.Receptor>
/home/ziqiaoxu/icml18-jtnn/VAEdesign/targets/RdRp-SARS-CoV-2/pocket_docking.prm

>  <SCORE>
-29.9537

>  <SCORE.INTER>
-24.0198

>  <SCORE.INTER.CONST>
1

>  <SCORE.INTER.POLAR>
-2.23796

>  <SCORE.INTER.REPUL>
0

>  <SCORE.INTER.ROT>
4

>  <SCORE.INTER.VDW>
-25.8107

>  <SCORE.INTER.norm>
-1.00082

>  <SCORE.INTRA>
-5.93388

>  <SCORE.INTRA.DIHEDRAL>
-11.0713

>  <SCORE.INTRA.DIHEDRAL.0>
15.2879

>  <SCORE.INTRA.POLAR>
0

>  <SCORE.INTRA.POLAR.0>
0

>  <SCORE.INTRA.REPUL>
0

>  <SCORE.INTRA.REPUL.0>
0

>  <SCORE.INTRA.VDW>
-0.398243

>  <SCORE.INTRA.VDW.0>
-1.82524

>  <SCORE.INTRA.norm>
-0.247245

>  <SCORE.RESTR>
0

>  <SCORE.RESTR.CAVITY>
0

>  <SCORE.RESTR.norm>
0

>  <SCORE.SYSTEM>
0

>  <SCORE.SYSTEM.CONST>
0

>  <SCORE.SYSTEM.DIHEDRAL>
0

>  <SCORE.SYSTEM.norm>
0

>  <SCORE.heavy>
24

>  <SCORE.norm>
-1.24807

$$$$
design_5
 OpenBabel05252019093D

 26 29  0  0  0  0  0  0  0  0999 V2000
   38.4408  -49.0760    6.7100 C   0  0  0  0  0  0  0  0  0  0  0  0
   38.9135  -48.0537    7.6679 C   0  0  0  0  0  0  0  0  0  0  0  0
   38.2366  -47.5697    8.7120 N   0  0  0  0  0  0  0  0  0  0  0  0
   39.0157  -46.6794    9.3070 N   0  0  0  0  0  0  0  0  0  0  0  0
   40.1726  -46.5808    8.6740 C   0  0  0  0  0  0  0  0  0  0  0  0
   41.3065  -45.7071    9.0209 C   0  0  0  0  0  0  0  0  0  0  0  0
   41.2889  -44.9797   10.1880 C   0  0  0  0  0  0  0  0  0  0  0  0
   42.3374  -44.1459   10.5296 C   0  0  0  0  0  0  0  0  0  0  0  0
   43.4584  -44.0002    9.7189 C   0  0  0  0  0  0  0  0  0  0  0  0
   43.4646  -44.7329    8.5546 C   0  0  0  0  0  0  0  0  0  0  0  0
   44.6432  -44.5911    7.6620 C   0  0  0  0  0  0  0  0  0  0  0  0
   44.2966  -44.8416    6.2866 N   0  0  0  0  0  0  0  0  0  0  0  0
   45.1963  -45.0685    5.2320 C   0  0  0  0  0  0  0  0  0  0  0  0
   46.4375  -45.0737    5.4799 O   0  0  0  0  0  0  0  0  0  0  0  0
   44.7448  -45.3026    3.8782 C   0  0  0  0  0  0  0  0  0  0  0  0
   45.6202  -45.3992    2.7951 C   0  0  0  0  0  0  0  0  0  0  0  0
   45.2011  -45.6655    1.5164 C   0  0  0  0  0  0  0  0  0  0  0  0
   43.8544  -45.8482    1.2657 C   0  0  0  0  0  0  0  0  0  0  0  0
   43.0070  -45.7575    2.2957 N   0  0  0  0  0  0  0  0  0  0  0  0
   43.3974  -45.4995    3.5483 C   0  0  0  0  0  0  0  0  0  0  0  0
   42.5540  -45.4168    4.5000 O   0  0  0  0  0  0  0  0  0  0  0  0
   43.6589  -46.1051   -0.2069 C   0  0  0  0  0  0  0  0  0  0  0  0
   44.9973  -46.7016   -0.5681 C   0  0  0  0  0  0  0  0  0  0  0  0
   45.9433  -45.8374    0.2339 C   0  0  0  0  0  0  0  0  0  0  0  0
   42.4124  -45.5653    8.2176 C   0  0  0  0  0  0  0  0  0  0  0  0
   40.1240  -47.4440    7.6327 N   0  0  0  0  0  0  0  0  0  0  0  0
  1  2  1  0  0  0  0
  2  3  2  0  0  0  0
  3  4  1  0  0  0  0
  4  5  1  0  0  0  0
  5  6  1  0  0  0  0
  5 26  2  0  0  0  0
  6  7  2  0  0  0  0
  7  8  1  0  0  0  0
  8  9  2  0  0  0  0
  9 10  1  0  0  0  0
 10 11  1  0  0  0  0
 10 25  2  0  0  0  0
 11 12  1  0  0  0  0
 12 13  1  0  0  0  0
 13 14  2  0  0  0  0
 13 15  1  0  0  0  0
 15 16  2  0  0  0  0
 16 17  1  0  0  0  0
 17 18  2  0  0  0  0
 18 19  1  0  0  0  0
 18 22  1  0  0  0  0
 19 20  1  0  0  0  0
 20 21  2  0  0  0  0
 20 15  1  0  0  0  0
 22 23  1  0  0  0  0
 23 24  1  0  0  0  0
 24 17  1  0  0  0  0
 25  6  1  0  0  0  0
 26  2  1  0  0  0  0
M  END
>  <CHROM.1>
7.00892470,-152.27474759,-165.75665309,173.52760239,42.78179974,-45.84810002
5.69814518,2.18399553,0.50382987,1.31035368

>  <Name>
design_5

>  <RI>
0

>  <Rbt.Current_Directory>
/home/ziqiaoxu/icml18-jtnn/VAEdesign

>  <Rbt.Executable>
rbdock ($Id: //depot/dev/client3/rdock/2013.1/src/exe/rbdock.cxx#4 $)

>  <Rbt.Library>
libRbt.so (2013.1, Build901 2013/11/27)

>  <Rbt.Parameter_File>
/export/apps/rDock/src/rDock_2013.1_src//data/scripts/dock.prm

>  <Rbt.Receptor>
/home/ziqiaoxu/icml18-jtnn/VAEdesign/targets/RdRp-SARS-CoV-2/pocket_docking.prm

>  <SCORE>
-26.5522

>  <SCORE.INTER>
-20.5976

>  <SCORE.INTER.CONST>
1

>  <SCORE.INTER.POLAR>
-1.23156

>  <SCORE.INTER.REPUL>
0

>  <SCORE.INTER.ROT>
4

>  <SCORE.INTER.VDW>
-25.8103

>  <SCORE.INTER.norm>
-0.792217

>  <SCORE.INTRA>
-5.95457

>  <SCORE.INTRA.DIHEDRAL>
-11.8867

>  <SCORE.INTRA.DIHEDRAL.0>
14.2423

>  <SCORE.INTRA.POLAR>
-0.318815

>  <SCORE.INTRA.POLAR.0>
0

>  <SCORE.INTRA.REPUL>
0

>  <SCORE.INTRA.REPUL.0>
0

>  <SCORE.INTRA.VDW>
1.07274

>  <SCORE.INTRA.VDW.0>
-1.73136

>  <SCORE.INTRA.norm>
-0.229022

>  <SCORE.RESTR>
0

>  <SCORE.RESTR.CAVITY>
0

>  <SCORE.RESTR.norm>
0

>  <SCORE.SYSTEM>
0

>  <SCORE.SYSTEM.CONST>
0

>  <SCORE.SYSTEM.DIHEDRAL>
0

>  <SCORE.SYSTEM.norm>
0

>  <SCORE.heavy>
26

>  <SCORE.norm>
-1.02124

$$$$
design_3
 OpenBabel05252019093D

 24 25  0  0  0  0  0  0  0  0999 V2000
   45.7770  -44.4867   11.4379 C   0  0  0  0  0  0  0  0  0  0  0  0
   45.1380  -43.4743   10.5218 C   0  0  0  0  0  0  0  0  0  0  0  0
   44.2478  -44.1314    9.5353 C   0  0  0  0  0  0  0  0  0  0  0  0
   44.7513  -44.5495    8.3272 C   0  0  0  0  0  0  0  0  0  0  0  0
   43.9212  -45.1562    7.4237 C   0  0  0  0  0  0  0  0  0  0  0  0
   42.5630  -45.3883    7.6447 C   0  0  0  0  0  0  0  0  0  0  0  0
   41.7846  -46.0281    6.6201 C   0  0  0  0  0  0  0  0  0  0  0  0
   42.4481  -46.2962    5.5292 O   0  0  0  0  0  0  0  0  0  0  0  0
   40.4450  -46.4146    6.5832 N   0  0  0  0  0  0  0  0  0  0  0  0
   40.0068  -47.0546    5.3030 C   0  0  0  0  0  0  0  0  0  0  0  0
   38.8448  -46.1511    4.8630 C   0  0  0  0  0  0  0  0  0  0  0  0
   37.6792  -46.6081    5.7274 C   0  0  0  0  0  0  0  0  0  0  0  0
   36.6483  -45.5476    5.6706 C   0  0  0  0  0  0  0  0  0  0  0  0
   35.4572  -45.8965    5.3769 O   0  0  0  0  0  0  0  0  0  0  0  0
   36.8924  -44.1886    5.9176 N   0  0  0  0  0  0  0  0  0  0  0  0
   35.8275  -43.2278    5.8405 C   0  0  0  0  0  0  0  0  0  0  0  0
   36.2984  -41.8260    6.1652 C   0  0  0  0  0  0  0  0  0  0  0  0
   35.1266  -40.8760    6.0468 C   0  0  0  0  0  0  0  0  0  0  0  0
   35.6462  -39.4472    5.8594 C   0  0  0  0  0  0  0  0  0  0  0  0
   34.3237  -40.9510    7.3364 C   0  0  0  0  0  0  0  0  0  0  0  0
   38.1025  -46.9306    7.1050 C   0  0  0  0  0  0  0  0  0  0  0  0
   39.4136  -46.3175    7.5539 C   0  0  0  0  0  0  0  0  0  0  0  0
   42.0963  -44.9578    8.8599 C   0  0  0  0  0  0  0  0  0  0  0  0
   42.9156  -44.3357    9.8036 C   0  0  0  0  0  0  0  0  0  0  0  0
  1  2  1  0  0  0  0
  2  3  1  0  0  0  0
  3  4  2  0  0  0  0
  4  5  1  0  0  0  0
  5  6  2  0  0  0  0
  6  7  1  0  0  0  0
  6 23  1  0  0  0  0
  7  8  2  0  0  0  0
  7  9  1  0  0  0  0
  9 10  1  0  0  0  0
 10 11  1  0  0  0  0
 11 12  1  0  0  0  0
 12 13  1  0  0  0  0
 12 21  1  0  0  0  0
 13 14  2  0  0  0  0
 13 15  1  0  0  0  0
 15 16  1  0  0  0  0
 16 17  1  0  0  0  0
 17 18  1  0  0  0  0
 18 19  1  0  0  0  0
 18 20  1  0  0  0  0
 21 22  1  0  0  0  0
 22  9  1  0  0  0  0
 23 24  2  0  0  0  0
 24  3  1  0  0  0  0
M  END
>  <CHROM.1>
-89.57203264,-2.19817661,128.72230070,178.99635727,179.36369154,-159.39505395
39.76162120,-44.56859412,7.09793526,-0.04596224,-0.41090482,0.44362132

>  <Name>
design_3

>  <RI>
0

>  <Rbt.Current_Directory>
/home/ziqiaoxu/icml18-jtnn/VAEdesign

>  <Rbt.Executable>
rbdock ($Id: //depot/dev/client3/rdock/2013.1/src/exe/rbdock.cxx#4 $)

>  <Rbt.Library>
libRbt.so (2013.1, Build901 2013/11/27)

>  <Rbt.Parameter_File>
/export/apps/rDock/src/rDock_2013.1_src//data/scripts/dock.prm

>  <Rbt.Receptor>
/home/ziqiaoxu/icml18-jtnn/VAEdesign/targets/RdRp-SARS-CoV-2/pocket_docking.prm

>  <SCORE>
-15.0659

>  <SCORE.INTER>
-14.303

>  <SCORE.INTER.CONST>
1

>  <SCORE.INTER.POLAR>
0

>  <SCORE.INTER.REPUL>
0.0213819

>  <SCORE.INTER.ROT>
6

>  <SCORE.INTER.VDW>
-25.8099

>  <SCORE.INTER.norm>
-0.595959

>  <SCORE.INTRA>
-0.762908

>  <SCORE.INTRA.DIHEDRAL>
1.9502

>  <SCORE.INTRA.DIHEDRAL.0>
2.52739

>  <SCORE.INTRA.POLAR>
0

>  <SCORE.INTRA.POLAR.0>
0

>  <SCORE.INTRA.REPUL>
0

>  <SCORE.INTRA.REPUL.0>
0

>  <SCORE.INTRA.VDW>
-1.73801

>  <SCORE.INTRA.VDW.0>
1.5532

>  <SCORE.INTRA.norm>
-0.0317878

>  <SCORE.RESTR>
0

>  <SCORE.RESTR.CAVITY>
0

>  <SCORE.RESTR.norm>
0

>  <SCORE.SYSTEM>
0

>  <SCORE.SYSTEM.CONST>
0

>  <SCORE.SYSTEM.DIHEDRAL>
0

>  <SCORE.SYSTEM.norm>
0

>  <SCORE.heavy>
24

>  <SCORE.norm>
-0.627747

$$$$
design_13
 OpenBabel05252019093D

 25 26  0  0  0  0  0  0  0  0999 V2000
   39.1247  -45.9331    8.9844 C   0  0  0  0  0  0  0  0  0  0  0  0
   39.5882  -47.0840    8.1539 C   0  0  0  0  0  0  0  0  0  0  0  0
   40.3280  -46.6673    6.9740 N   0  0  0  0  0  0  0  0  0  0  0  0
   39.7503  -46.6172    5.6638 C   0  0  0  0  0  0  0  0  0  0  0  0
   38.4486  -45.8982    5.6462 C   0  0  0  0  0  0  0  0  0  0  0  0
   38.4210  -44.5211    5.7182 C   0  0  0  0  0  0  0  0  0  0  0  0
   37.2184  -43.8163    5.7040 C   0  0  0  0  0  0  0  0  0  0  0  0
   36.0129  -44.4802    5.6169 C   0  0  0  0  0  0  0  0  0  0  0  0
   36.0545  -45.8601    5.5453 C   0  0  0  0  0  0  0  0  0  0  0  0
   37.2432  -46.5585    5.5593 C   0  0  0  0  0  0  0  0  0  0  0  0
   37.2206  -47.9067    5.4866 F   0  0  0  0  0  0  0  0  0  0  0  0
   41.6851  -46.2897    7.1566 C   0  0  0  0  0  0  0  0  0  0  0  0
   42.2187  -46.3098    8.3191 O   0  0  0  0  0  0  0  0  0  0  0  0
   42.5101  -45.8775    6.0845 N   0  0  0  0  0  0  0  0  0  0  0  0
   43.9064  -45.4746    6.2263 C   0  0  0  0  0  0  0  0  0  0  0  0
   44.0823  -44.2321    7.0555 C   0  0  0  0  0  0  0  0  0  0  0  0
   44.7127  -44.5320    8.3186 N   0  0  0  0  0  0  0  0  0  0  0  0
   44.0860  -44.1638    9.5252 C   0  0  0  0  0  0  0  0  0  0  0  0
   42.9875  -43.5700    9.5676 O   0  0  0  0  0  0  0  0  0  0  0  0
   44.7220  -44.4751   10.8195 C   0  0  0  0  0  0  0  0  0  0  0  0
   44.0581  -44.1385   11.9850 C   0  0  0  0  0  0  0  0  0  0  0  0
   44.6215  -44.4124   13.2015 C   0  0  0  0  0  0  0  0  0  0  0  0
   45.8504  -45.0232   13.3217 C   0  0  0  0  0  0  0  0  0  0  0  0
   46.5204  -45.3627   12.1679 C   0  0  0  0  0  0  0  0  0  0  0  0
   45.9396  -45.0802   10.9442 C   0  0  0  0  0  0  0  0  0  0  0  0
  1  2  1  0  0  0  0
  2  3  1  0  0  0  0
  3  4  1  0  0  0  0
  3 12  1  0  0  0  0
  4  5  1  0  0  0  0
  5  6  2  0  0  0  0
  6  7  1  0  0  0  0
  7  8  2  0  0  0  0
  8  9  1  0  0  0  0
  9 10  2  0  0  0  0
 10 11  1  0  0  0  0
 10  5  1  0  0  0  0
 12 13  2  0  0  0  0
 12 14  1  0  0  0  0
 14 15  1  0  0  0  0
 15 16  1  0  0  0  0
 16 17  1  0  0  0  0
 17 18  1  0  0  0  0
 18 19  2  0  0  0  0
 18 20  1  0  0  0  0
 20 21  2  0  0  0  0
 21 22  1  0  0  0  0
 22 23  2  0  0  0  0
 23 24  1  0  0  0  0
 24 25  2  0  0  0  0
 25 20  1  0  0  0  0
M  END
>  <CHROM.1>
-100.75343317,49.22544461,75.91440765,-64.13329217,110.70409009,-124.31227054
-177.89685653,41.45395583,-45.41863329,8.09471737,2.50691551,-0.08061114
-1.69511813

>  <Name>
design_13

>  <RI>
0

>  <Rbt.Current_Directory>
/home/ziqiaoxu/icml18-jtnn/VAEdesign

>  <Rbt.Executable>
rbdock ($Id: //depot/dev/client3/rdock/2013.1/src/exe/rbdock.cxx#4 $)

>  <Rbt.Library>
libRbt.so (2013.1, Build901 2013/11/27)

>  <Rbt.Parameter_File>
/export/apps/rDock/src/rDock_2013.1_src//data/scripts/dock.prm

>  <Rbt.Receptor>
/home/ziqiaoxu/icml18-jtnn/VAEdesign/targets/RdRp-SARS-CoV-2/pocket_docking.prm

>  <SCORE>
-15.6117

>  <SCORE.INTER>
-16.7098

>  <SCORE.INTER.CONST>
1

>  <SCORE.INTER.POLAR>
-0.971051

>  <SCORE.INTER.REPUL>
0

>  <SCORE.INTER.ROT>
7

>  <SCORE.INTER.VDW>
-25.8083

>  <SCORE.INTER.norm>
-0.668394

>  <SCORE.INTRA>
1.09813

>  <SCORE.INTRA.DIHEDRAL>
5.18038

>  <SCORE.INTRA.DIHEDRAL.0>
5.55495

>  <SCORE.INTRA.POLAR>
0

>  <SCORE.INTRA.POLAR.0>
0

>  <SCORE.INTRA.REPUL>
0

>  <SCORE.INTRA.REPUL.0>
0

>  <SCORE.INTRA.VDW>
-1.49206

>  <SCORE.INTRA.VDW.0>
-0.893742

>  <SCORE.INTRA.norm>
0.0439251

>  <SCORE.RESTR>
0

>  <SCORE.RESTR.CAVITY>
0

>  <SCORE.RESTR.norm>
0

>  <SCORE.SYSTEM>
0

>  <SCORE.SYSTEM.CONST>
0

>  <SCORE.SYSTEM.DIHEDRAL>
0

>  <SCORE.SYSTEM.norm>
0

>  <SCORE.heavy>
25

>  <SCORE.norm>
-0.624469

$$$$
design_6
 OpenBabel05252019093D

 24 26  0  0  0  0  0  0  0  0999 V2000
   40.4895  -38.0652    3.3499 C   0  0  0  0  0  0  0  0  0  0  0  0
   40.5742  -37.6195    4.6684 O   0  0  0  0  0  0  0  0  0  0  0  0
   40.4200  -38.4376    5.7780 C   0  0  0  0  0  0  0  0  0  0  0  0
   40.5049  -37.8986    7.0392 C   0  0  0  0  0  0  0  0  0  0  0  0
   40.3543  -38.6936    8.1965 C   0  0  0  0  0  0  0  0  0  0  0  0
   40.1166  -40.0348    8.1071 C   0  0  0  0  0  0  0  0  0  0  0  0
   39.9209  -40.9334    9.1499 N   0  0  0  0  0  0  0  0  0  0  0  0
   40.1497  -42.3451    9.1450 C   0  0  0  0  0  0  0  0  0  0  0  0
   40.5820  -42.8055    8.0733 O   0  0  0  0  0  0  0  0  0  0  0  0
   39.8837  -43.1485   10.3283 C   0  0  0  0  0  0  0  0  0  0  0  0
   40.6840  -44.3387   10.6498 C   0  0  0  0  0  0  0  0  0  0  0  0
   41.0069  -45.2322    9.5816 N   0  0  0  0  0  0  0  0  0  0  0  0
   42.1906  -45.2431    8.9077 C   0  0  0  0  0  0  0  0  0  0  0  0
   43.1521  -44.5028    9.2282 O   0  0  0  0  0  0  0  0  0  0  0  0
   42.1506  -46.1035    7.9330 O   0  0  0  0  0  0  0  0  0  0  0  0
   40.9645  -46.7078    7.8930 C   0  0  0  0  0  0  0  0  0  0  0  0
   40.4338  -47.6661    7.0689 C   0  0  0  0  0  0  0  0  0  0  0  0
   39.1499  -48.0896    7.2787 C   0  0  0  0  0  0  0  0  0  0  0  0
   38.4033  -49.3214    6.2549 Cl  0  0  0  0  0  0  0  0  0  0  0  0
   38.4237  -47.5317    8.3246 C   0  0  0  0  0  0  0  0  0  0  0  0
   38.9547  -46.5804    9.1435 C   0  0  0  0  0  0  0  0  0  0  0  0
   40.2454  -46.1377    8.9557 C   0  0  0  0  0  0  0  0  0  0  0  0
   40.0400  -40.5322    6.7923 C   0  0  0  0  0  0  0  0  0  0  0  0
   40.1868  -39.7564    5.7131 N   0  0  0  0  0  0  0  0  0  0  0  0
  1  2  1  0  0  0  0
  2  3  1  0  0  0  0
  3  4  2  0  0  0  0
  4  5  1  0  0  0  0
  5  6  2  0  0  0  0
  6  7  1  0  0  0  0
  6 23  1  0  0  0  0
  7  8  1  0  0  0  0
  8  9  2  0  0  0  0
  8 10  1  0  0  0  0
 10 11  1  0  0  0  0
 11 12  1  0  0  0  0
 12 13  1  0  0  0  0
 13 14  2  0  0  0  0
 13 15  1  0  0  0  0
 15 16  1  0  0  0  0
 16 17  2  0  0  0  0
 17 18  1  0  0  0  0
 18 19  1  0  0  0  0
 18 20  2  0  0  0  0
 20 21  1  0  0  0  0
 21 22  2  0  0  0  0
 22 12  1  0  0  0  0
 22 16  1  0  0  0  0
 23 24  2  0  0  0  0
 24  3  1  0  0  0  0
M  END
>  <CHROM.1>
-179.17725822,-155.19516479,-147.52269004,-43.22185988,98.34835725,40.28560041
-43.55637746,7.69785503,1.33990893,-1.20637287,-0.38703720

>  <Name>
design_6

>  <RI>
0

>  <Rbt.Current_Directory>
/home/ziqiaoxu/icml18-jtnn/VAEdesign

>  <Rbt.Executable>
rbdock ($Id: //depot/dev/client3/rdock/2013.1/src/exe/rbdock.cxx#4 $)

>  <Rbt.Library>
libRbt.so (2013.1, Build901 2013/11/27)

>  <Rbt.Parameter_File>
/export/apps/rDock/src/rDock_2013.1_src//data/scripts/dock.prm

>  <Rbt.Receptor>
/home/ziqiaoxu/icml18-jtnn/VAEdesign/targets/RdRp-SARS-CoV-2/pocket_docking.prm

>  <SCORE>
-16.4018

>  <SCORE.INTER>
-18.3101

>  <SCORE.INTER.CONST>
1

>  <SCORE.INTER.POLAR>
-0.855338

>  <SCORE.INTER.REPUL>
0.00111717

>  <SCORE.INTER.ROT>
5

>  <SCORE.INTER.VDW>
-25.8075

>  <SCORE.INTER.norm>
-0.762919

>  <SCORE.INTRA>
1.90682

>  <SCORE.INTRA.DIHEDRAL>
3.34139

>  <SCORE.INTRA.DIHEDRAL.0>
4.77836

>  <SCORE.INTRA.POLAR>
0

>  <SCORE.INTRA.POLAR.0>
0

>  <SCORE.INTRA.REPUL>
0

>  <SCORE.INTRA.REPUL.0>
0

>  <SCORE.INTRA.VDW>
0.236122

>  <SCORE.INTRA.VDW.0>
-1.25525

>  <SCORE.INTRA.norm>
0.0794507

>  <SCORE.RESTR>
0.00141064

>  <SCORE.RESTR.CAVITY>
0.00141064

>  <SCORE.RESTR.norm>
5.87765e-05

>  <SCORE.SYSTEM>
0

>  <SCORE.SYSTEM.CONST>
0

>  <SCORE.SYSTEM.DIHEDRAL>
0

>  <SCORE.SYSTEM.norm>
0

>  <SCORE.heavy>
24

>  <SCORE.norm>
-0.68341

$$$$
design_16
 OpenBabel05252019093D

 25 26  0  0  0  0  0  0  0  0999 V2000
   49.7361  -47.6220    3.7243 C   0  0  0  0  0  0  0  0  0  0  0  0
   48.6998  -46.4706    3.7979 C   0  0  0  0  0  0  0  0  0  0  0  0
   49.3865  -45.3231    3.0372 C   0  0  0  0  0  0  0  0  0  0  0  0
   47.4603  -46.8924    3.1095 C   0  0  0  0  0  0  0  0  0  0  0  0
   46.3151  -45.9520    3.0263 C   0  0  2  0  0  0  0  0  0  0  0  0
   45.6349  -45.6703    4.2604 N   0  0  0  0  0  0  0  0  0  0  0  0
   46.0894  -44.8535    5.2591 C   0  0  0  0  0  0  0  0  0  0  0  0
   47.1773  -44.1916    5.2719 O   0  0  0  0  0  0  0  0  0  0  0  0
   45.3197  -44.6361    6.5126 C   0  0  0  0  0  0  0  0  0  0  0  0
   44.1491  -45.3368    6.7397 C   0  0  0  0  0  0  0  0  0  0  0  0
   43.4767  -45.1889    7.9199 C   0  0  0  0  0  0  0  0  0  0  0  0
   43.9466  -44.3293    8.9186 C   0  0  0  0  0  0  0  0  0  0  0  0
   43.1546  -44.2770   10.1441 C   0  0  0  0  0  0  0  0  0  0  0  0
   41.8345  -44.6563   10.0536 N   0  0  0  0  0  0  0  0  0  0  0  0
   40.5422  -45.0253    9.9629 C   0  0  0  0  0  0  0  0  0  0  0  0
   39.9618  -46.1871   10.6713 N   0  0  0  0  0  0  0  0  0  0  0  0
   39.6422  -44.3857    9.2405 O   0  0  0  0  0  0  0  0  0  0  0  0
   45.1026  -43.6318    8.6930 C   0  0  0  0  0  0  0  0  0  0  0  0
   45.7669  -43.8055    7.4806 C   0  0  0  0  0  0  0  0  0  0  0  0
   45.4881  -46.0770    1.8152 C   0  0  0  0  0  0  0  0  0  0  0  0
   46.0297  -46.4162    0.5744 C   0  0  0  0  0  0  0  0  0  0  0  0
   45.2904  -46.5274   -0.5763 C   0  0  0  0  0  0  0  0  0  0  0  0
   43.9405  -46.2868   -0.5023 C   0  0  0  0  0  0  0  0  0  0  0  0
   43.3356  -45.9529    0.6606 C   0  0  0  0  0  0  0  0  0  0  0  0
   44.1352  -45.8510    1.8263 C   0  0  0  0  0  0  0  0  0  0  0  0
  1  2  1  0  0  0  0
  2  3  1  0  0  0  0
  2  4  1  0  0  0  0
  5  4  1  1  0  0  0
  5  6  1  0  0  0  0
  5 20  1  0  0  0  0
  6  7  1  0  0  0  0
  7  8  2  0  0  0  0
  7  9  1  0  0  0  0
  9 10  2  0  0  0  0
 10 11  1  0  0  0  0
 11 12  2  0  0  0  0
 12 13  1  0  0  0  0
 12 18  1  0  0  0  0
 13 14  1  0  0  0  0
 14 15  1  0  0  0  0
 15 16  1  0  0  0  0
 15 17  2  0  0  0  0
 18 19  2  0  0  0  0
 19  9  1  0  0  0  0
 20 21  2  0  0  0  0
 21 22  1  0  0  0  0
 22 23  2  0  0  0  0
 23 24  1  0  0  0  0
 24 25  2  0  0  0  0
 25 20  1  0  0  0  0
M  END
>  <CHROM.1>
-179.19375047,-69.31206764,75.82902581,4.41166175,-22.68001705,-59.95810254
-34.41436812,44.84488781,-45.42647819,5.33618899,-1.02426370,0.02085978,1.37076766

>  <Name>
design_16

>  <RI>
0

>  <Rbt.Current_Directory>
/home/ziqiaoxu/icml18-jtnn/VAEdesign

>  <Rbt.Executable>
rbdock ($Id: //depot/dev/client3/rdock/2013.1/src/exe/rbdock.cxx#4 $)

>  <Rbt.Library>
libRbt.so (2013.1, Build901 2013/11/27)

>  <Rbt.Parameter_File>
/export/apps/rDock/src/rDock_2013.1_src//data/scripts/dock.prm

>  <Rbt.Receptor>
/home/ziqiaoxu/icml18-jtnn/VAEdesign/targets/RdRp-SARS-CoV-2/pocket_docking.prm

>  <SCORE>
-23.7882

>  <SCORE.INTER>
-21.0741

>  <SCORE.INTER.CONST>
1

>  <SCORE.INTER.POLAR>
-2.25571

>  <SCORE.INTER.REPUL>
0

>  <SCORE.INTER.ROT>
7

>  <SCORE.INTER.VDW>
-25.8047

>  <SCORE.INTER.norm>
-0.842963

>  <SCORE.INTRA>
-2.71413

>  <SCORE.INTRA.DIHEDRAL>
-7.94826

>  <SCORE.INTRA.DIHEDRAL.0>
12.0514

>  <SCORE.INTRA.POLAR>
0

>  <SCORE.INTRA.POLAR.0>
0

>  <SCORE.INTRA.REPUL>
0

>  <SCORE.INTRA.REPUL.0>
0

>  <SCORE.INTRA.VDW>
1.26

>  <SCORE.INTRA.VDW.0>
-1.65867

>  <SCORE.INTRA.norm>
-0.108565

>  <SCORE.RESTR>
0

>  <SCORE.RESTR.CAVITY>
0

>  <SCORE.RESTR.norm>
0

>  <SCORE.SYSTEM>
0

>  <SCORE.SYSTEM.CONST>
0

>  <SCORE.SYSTEM.DIHEDRAL>
0

>  <SCORE.SYSTEM.norm>
0

>  <SCORE.heavy>
25

>  <SCORE.norm>
-0.951528

$$$$
design_12
 OpenBabel05252019093D

 25 27  0  0  0  0  0  0  0  0999 V2000
   48.2934  -47.3977    3.5067 C   0  0  0  0  0  0  0  0  0  0  0  0
   46.9922  -46.8302    3.2024 N   0  0  0  0  0  0  0  0  0  0  0  0
   46.2922  -46.2415    4.1422 N   0  0  0  0  0  0  0  0  0  0  0  0
   45.0532  -45.6830    3.9230 C   0  0  0  0  0  0  0  0  0  0  0  0
   44.3695  -45.0577    5.0361 C   0  0  0  0  0  0  0  0  0  0  0  0
   43.4246  -44.2738    4.9709 O   0  0  0  0  0  0  0  0  0  0  0  0
   44.8146  -45.3608    6.3907 N   0  0  0  0  0  0  0  0  0  0  0  0
   44.1275  -44.7345    7.4672 C   0  0  0  0  0  0  0  0  0  0  0  0
   42.8562  -45.3967    7.7982 C   0  0  0  0  0  0  0  0  0  0  0  0
   42.3624  -45.1613    8.9720 O   0  0  0  0  0  0  0  0  0  0  0  0
   42.1831  -46.2434    6.9204 N   0  0  0  0  0  0  0  0  0  0  0  0
   40.9232  -46.8541    7.3004 C   0  0  0  0  0  0  0  0  0  0  0  0
   40.3219  -46.5902    8.4850 C   0  0  0  0  0  0  0  0  0  0  0  0
   39.1258  -47.2297    8.8182 C   0  0  0  0  0  0  0  0  0  0  0  0
   38.5532  -48.1254    7.9509 C   0  0  0  0  0  0  0  0  0  0  0  0
   39.1814  -48.3768    6.7528 C   0  0  0  0  0  0  0  0  0  0  0  0
   40.3463  -47.7580    6.4225 C   0  0  0  0  0  0  0  0  0  0  0  0
   44.5922  -45.7828    2.6444 C   0  0  0  0  0  0  0  0  0  0  0  0
   43.3801  -45.2634    2.3249 C   0  0  0  0  0  0  0  0  0  0  0  0
   42.9212  -45.3740    1.0079 C   0  0  0  0  0  0  0  0  0  0  0  0
   43.6543  -45.9920    0.0187 C   0  0  0  0  0  0  0  0  0  0  0  0
   44.8835  -46.5210    0.3334 C   0  0  0  0  0  0  0  0  0  0  0  0
   45.3284  -46.4082    1.6316 C   0  0  0  0  0  0  0  0  0  0  0  0
   46.5594  -46.9398    1.9402 C   0  0  0  0  0  0  0  0  0  0  0  0
   47.2669  -47.5210    1.0444 O   0  0  0  0  0  0  0  0  0  0  0  0
  1  2  1  0  0  0  0
  2  3  1  0  0  0  0
  3  4  2  0  0  0  0
  4  5  1  0  0  0  0
  4 18  1  0  0  0  0
  5  6  2  0  0  0  0
  5  7  1  0  0  0  0
  7  8  1  0  0  0  0
  8  9  1  0  0  0  0
  9 10  2  0  0  0  0
  9 11  1  0  0  0  0
 11 12  1  0  0  0  0
 12 13  2  0  0  0  0
 13 14  1  0  0  0  0
 14 15  2  0  0  0  0
 15 16  1  0  0  0  0
 16 17  2  0  0  0  0
 17 12  1  0  0  0  0
 18 19  2  0  0  0  0
 19 20  1  0  0  0  0
 20 21  2  0  0  0  0
 21 22  1  0  0  0  0
 22 23  2  0  0  0  0
 23 24  1  0  0  0  0
 23 18  1  0  0  0  0
 24 25  2  0  0  0  0
 24  2  1  0  0  0  0
M  END
>  <CHROM.1>
162.91612388,79.97488495,160.43490323,2.83475602,43.57139543,-46.27392334
4.78978206,-0.81609300,0.21451087,1.42301702

>  <Name>
design_12

>  <RI>
0

>  <Rbt.Current_Directory>
/home/ziqiaoxu/icml18-jtnn/VAEdesign

>  <Rbt.Executable>
rbdock ($Id: //depot/dev/client3/rdock/2013.1/src/exe/rbdock.cxx#4 $)

>  <Rbt.Library>
libRbt.so (2013.1, Build901 2013/11/27)

>  <Rbt.Parameter_File>
/export/apps/rDock/src/rDock_2013.1_src//data/scripts/dock.prm

>  <Rbt.Receptor>
/home/ziqiaoxu/icml18-jtnn/VAEdesign/targets/RdRp-SARS-CoV-2/pocket_docking.prm

>  <SCORE>
-20.8291

>  <SCORE.INTER>
-19.4427

>  <SCORE.INTER.CONST>
1

>  <SCORE.INTER.POLAR>
-0.894427

>  <SCORE.INTER.REPUL>
0

>  <SCORE.INTER.ROT>
4

>  <SCORE.INTER.VDW>
-25.8016

>  <SCORE.INTER.norm>
-0.777708

>  <SCORE.INTRA>
-1.38642

>  <SCORE.INTRA.DIHEDRAL>
-3.03074

>  <SCORE.INTRA.DIHEDRAL.0>
6.72241

>  <SCORE.INTRA.POLAR>
0

>  <SCORE.INTRA.POLAR.0>
0

>  <SCORE.INTRA.REPUL>
0

>  <SCORE.INTRA.REPUL.0>
0

>  <SCORE.INTRA.VDW>
0.128956

>  <SCORE.INTRA.VDW.0>
0.137335

>  <SCORE.INTRA.norm>
-0.0554566

>  <SCORE.RESTR>
0

>  <SCORE.RESTR.CAVITY>
0

>  <SCORE.RESTR.norm>
0

>  <SCORE.SYSTEM>
0

>  <SCORE.SYSTEM.CONST>
0

>  <SCORE.SYSTEM.DIHEDRAL>
0

>  <SCORE.SYSTEM.norm>
0

>  <SCORE.heavy>
25

>  <SCORE.norm>
-0.833164

$$$$
design_7
 OpenBabel05252019093D

 26 28  0  0  0  0  0  0  0  0999 V2000
   39.4290  -48.8861    6.3594 C   0  0  0  0  0  0  0  0  0  0  0  0
   39.5058  -47.3546    6.2183 C   0  0  2  0  0  0  0  0  0  0  0  0
   40.4387  -47.0108    5.1854 N   0  0  0  0  0  0  0  0  0  0  0  0
   40.3456  -45.7562    4.5533 C   0  0  0  0  0  0  0  0  0  0  0  0
   39.4371  -44.9147    4.8827 O   0  0  0  0  0  0  0  0  0  0  0  0
   41.2506  -45.2972    3.4863 C   0  0  0  0  0  0  0  0  0  0  0  0
   40.9057  -44.3145    2.6156 C   0  0  0  0  0  0  0  0  0  0  0  0
   41.8019  -43.9038    1.6223 C   0  0  0  0  0  0  0  0  0  0  0  0
   43.0325  -44.4471    1.4731 C   0  0  0  0  0  0  0  0  0  0  0  0
   43.9401  -44.0639    0.4754 N   0  0  0  0  0  0  0  0  0  0  0  0
   45.3379  -44.0509    0.4873 C   0  0  0  0  0  0  0  0  0  0  0  0
   45.9864  -44.4103    1.4840 O   0  0  0  0  0  0  0  0  0  0  0  0
   46.0852  -43.5988   -0.7121 C   0  0  0  0  0  0  0  0  0  0  0  0
   45.8123  -42.1357   -0.8902 C   0  0  0  0  0  0  0  0  0  0  0  0
   46.6247  -41.1868   -1.4513 C   0  0  0  0  0  0  0  0  0  0  0  0
   46.1539  -39.9238   -1.4985 C   0  0  0  0  0  0  0  0  0  0  0  0
   44.9067  -39.7049   -0.9812 C   0  0  0  0  0  0  0  0  0  0  0  0
   44.4293  -41.2480   -0.4492 S   0  0  0  0  0  0  0  0  0  0  0  0
   43.3657  -45.4608    2.3850 C   0  0  0  0  0  0  0  0  0  0  0  0
   42.4884  -45.8674    3.3632 C   0  0  0  0  0  0  0  0  0  0  0  0
   39.8402  -46.7696    7.5398 C   0  0  0  0  0  0  0  0  0  0  0  0
   41.0635  -46.1790    7.7821 C   0  0  0  0  0  0  0  0  0  0  0  0
   41.4073  -45.6260    8.9987 C   0  0  0  0  0  0  0  0  0  0  0  0
   40.4514  -45.6845   10.0032 C   0  0  0  0  0  0  0  0  0  0  0  0
   39.2074  -46.2639    9.8177 C   0  0  0  0  0  0  0  0  0  0  0  0
   38.9266  -46.8010    8.5713 C   0  0  0  0  0  0  0  0  0  0  0  0
  2  1  1  1  0  0  0
  2  3  1  0  0  0  0
  2 21  1  0  0  0  0
  3  4  1  0  0  0  0
  4  5  2  0  0  0  0
  4  6  1  0  0  0  0
  6  7  2  0  0  0  0
  7  8  1  0  0  0  0
  8  9  2  0  0  0  0
  9 10  1  0  0  0  0
  9 19  1  0  0  0  0
 10 11  1  0  0  0  0
 11 12  2  0  0  0  0
 11 13  1  0  0  0  0
 13 14  1  0  0  0  0
 14 15  2  0  0  0  0
 15 16  1  0  0  0  0
 16 17  2  0  0  0  0
 17 18  1  0  0  0  0
 18 14  1  0  0  0  0
 19 20  2  0  0  0  0
 20  6  1  0  0  0  0
 21 22  2  0  0  0  0
 22 23  1  0  0  0  0
 23 24  2  0  0  0  0
 24 25  1  0  0  0  0
 25 26  2  0  0  0  0
 26 21  1  0  0  0  0
M  END
>  <CHROM.1>
157.74628798,158.28476073,149.19395729,66.84807247,150.80894182,110.69783434
42.49192298,-44.50065078,3.30548418,2.89065276,1.03393804,0.81227397

>  <Name>
design_7

>  <RI>
0

>  <Rbt.Current_Directory>
/home/ziqiaoxu/icml18-jtnn/VAEdesign

>  <Rbt.Executable>
rbdock ($Id: //depot/dev/client3/rdock/2013.1/src/exe/rbdock.cxx#4 $)

>  <Rbt.Library>
libRbt.so (2013.1, Build901 2013/11/27)

>  <Rbt.Parameter_File>
/export/apps/rDock/src/rDock_2013.1_src//data/scripts/dock.prm

>  <Rbt.Receptor>
/home/ziqiaoxu/icml18-jtnn/VAEdesign/targets/RdRp-SARS-CoV-2/pocket_docking.prm

>  <SCORE>
-16.5277

>  <SCORE.INTER>
-17.5236

>  <SCORE.INTER.CONST>
1

>  <SCORE.INTER.POLAR>
-0.918305

>  <SCORE.INTER.REPUL>
0

>  <SCORE.INTER.ROT>
6

>  <SCORE.INTER.VDW>
-25.8014

>  <SCORE.INTER.norm>
-0.673985

>  <SCORE.INTRA>
0.995915

>  <SCORE.INTRA.DIHEDRAL>
3.22894

>  <SCORE.INTRA.DIHEDRAL.0>
6.69205

>  <SCORE.INTRA.POLAR>
0

>  <SCORE.INTRA.POLAR.0>
0

>  <SCORE.INTRA.REPUL>
0

>  <SCORE.INTRA.REPUL.0>
0

>  <SCORE.INTRA.VDW>
-0.618555

>  <SCORE.INTRA.VDW.0>
-1.07275

>  <SCORE.INTRA.norm>
0.0383044

>  <SCORE.RESTR>
0

>  <SCORE.RESTR.CAVITY>
0

>  <SCORE.RESTR.norm>
0

>  <SCORE.SYSTEM>
0

>  <SCORE.SYSTEM.CONST>
0

>  <SCORE.SYSTEM.DIHEDRAL>
0

>  <SCORE.SYSTEM.norm>
0

>  <SCORE.heavy>
26

>  <SCORE.norm>
-0.63568

$$$$
design_16
 OpenBabel05252019093D

 25 26  0  0  0  0  0  0  0  0999 V2000
   40.2217  -47.9238    5.2562 C   0  0  0  0  0  0  0  0  0  0  0  0
   40.2406  -47.3445    6.6333 C   0  0  0  0  0  0  0  0  0  0  0  0
   39.2268  -47.6023    7.5302 C   0  0  0  0  0  0  0  0  0  0  0  0
   39.2273  -47.0691    8.8236 C   0  0  0  0  0  0  0  0  0  0  0  0
   40.2607  -46.2603    9.2343 C   0  0  0  0  0  0  0  0  0  0  0  0
   40.3532  -45.6494   10.5775 C   0  0  0  0  0  0  0  0  0  0  0  0
   40.6533  -44.2174   10.5336 C   0  0  0  0  0  0  0  0  0  0  0  0
   41.8151  -43.7412   10.4563 O   0  0  0  0  0  0  0  0  0  0  0  0
   39.5497  -43.2866   10.5816 N   0  0  0  0  0  0  0  0  0  0  0  0
   39.7787  -41.8744   10.5422 C   0  0  0  0  0  0  0  0  0  0  0  0
   39.8850  -41.2594    9.2136 C   0  0  0  0  0  0  0  0  0  0  0  0
   40.1810  -42.0104    8.2087 O   0  0  0  0  0  0  0  0  0  0  0  0
   39.6896  -39.9002    8.9338 N   0  0  0  0  0  0  0  0  0  0  0  0
   39.7691  -39.2538    7.6827 C   0  0  0  0  0  0  0  0  0  0  0  0
   39.8439  -40.0569    6.5327 C   0  0  0  0  0  0  0  0  0  0  0  0
   39.9442  -39.5327    5.2811 C   0  0  0  0  0  0  0  0  0  0  0  0
   39.9784  -38.1769    5.0674 C   0  0  0  0  0  0  0  0  0  0  0  0
   40.1065  -37.6055    3.4405 S   0  0  0  0  0  0  0  0  0  0  0  0
   39.0527  -36.2703    3.1484 N   0  0  0  0  0  0  0  0  0  0  0  0
   39.7245  -38.7097    2.4722 O   0  0  0  0  0  0  0  0  0  0  0  0
   41.5121  -37.1643    3.1586 O   0  0  0  0  0  0  0  0  0  0  0  0
   39.9082  -37.3582    6.1629 C   0  0  0  0  0  0  0  0  0  0  0  0
   39.8050  -37.9049    7.4533 C   0  0  0  0  0  0  0  0  0  0  0  0
   41.2754  -46.0042    8.3316 C   0  0  0  0  0  0  0  0  0  0  0  0
   41.2742  -46.5324    7.0520 C   0  0  0  0  0  0  0  0  0  0  0  0
  1  2  1  0  0  0  0
  2  3  2  0  0  0  0
  3  4  1  0  0  0  0
  4  5  2  0  0  0  0
  5  6  1  0  0  0  0
  5 24  1  0  0  0  0
  6  7  1  0  0  0  0
  7  8  2  0  0  0  0
  7  9  1  0  0  0  0
  9 10  1  0  0  0  0
 10 11  1  0  0  0  0
 11 12  2  0  0  0  0
 11 13  1  0  0  0  0
 13 14  1  0  0  0  0
 14 15  2  0  0  0  0
 15 16  1  0  0  0  0
 16 17  2  0  0  0  0
 17 18  1  0  0  0  0
 17 22  1  0  0  0  0
 18 19  1  0  0  0  0
 18 20  2  0  0  0  0
 18 21  2  0  0  0  0
 22 23  2  0  0  0  0
 23 14  1  0  0  0  0
 24 25  2  0  0  0  0
 25  2  1  0  0  0  0
M  END
>  <CHROM.1>
-131.17659437,-85.44775714,86.55503153,-21.08524499,11.01555065,137.15573619
48.49880560,40.13475827,-41.78806475,7.03787857,-0.57512389,1.53415127,-1.48741075

>  <Name>
design_16

>  <RI>
0

>  <Rbt.Current_Directory>
/home/ziqiaoxu/icml18-jtnn/VAEdesign

>  <Rbt.Executable>
rbdock ($Id: //depot/dev/client3/rdock/2013.1/src/exe/rbdock.cxx#4 $)

>  <Rbt.Library>
libRbt.so (2013.1, Build901 2013/11/27)

>  <Rbt.Parameter_File>
/export/apps/rDock/src/rDock_2013.1_src//data/scripts/dock.prm

>  <Rbt.Receptor>
/home/ziqiaoxu/icml18-jtnn/VAEdesign/targets/RdRp-SARS-CoV-2/pocket_docking.prm

>  <SCORE>
-23.3705

>  <SCORE.INTER>
-23.7444

>  <SCORE.INTER.CONST>
1

>  <SCORE.INTER.POLAR>
-3.20998

>  <SCORE.INTER.REPUL>
0.114067

>  <SCORE.INTER.ROT>
7

>  <SCORE.INTER.VDW>
-25.8008

>  <SCORE.INTER.norm>
-0.949777

>  <SCORE.INTRA>
0.0938771

>  <SCORE.INTRA.DIHEDRAL>
-0.837207

>  <SCORE.INTRA.DIHEDRAL.0>
7.27704

>  <SCORE.INTRA.POLAR>
0

>  <SCORE.INTRA.POLAR.0>
0

>  <SCORE.INTRA.REPUL>
0

>  <SCORE.INTRA.REPUL.0>
0

>  <SCORE.INTRA.VDW>
0.512481

>  <SCORE.INTRA.VDW.0>
-1.66484

>  <SCORE.INTRA.norm>
0.00375508

>  <SCORE.RESTR>
0.280084

>  <SCORE.RESTR.CAVITY>
0.280084

>  <SCORE.RESTR.norm>
0.0112034

>  <SCORE.SYSTEM>
0

>  <SCORE.SYSTEM.CONST>
0

>  <SCORE.SYSTEM.DIHEDRAL>
0

>  <SCORE.SYSTEM.norm>
0

>  <SCORE.heavy>
25

>  <SCORE.norm>
-0.934819

$$$$
design_13
 OpenBabel05252019093D

 22 23  0  0  0  0  0  0  0  0999 V2000
   45.2180  -44.0265    7.5905 C   0  0  0  0  0  0  0  0  0  0  0  0
   44.1041  -43.6099    8.9579 S   0  0  0  0  0  0  0  0  0  0  0  0
   42.6891  -44.7214    8.9034 C   0  0  0  0  0  0  0  0  0  0  0  0
   41.7340  -44.7048    9.8919 C   0  0  0  0  0  0  0  0  0  0  0  0
   40.6641  -45.5651    9.8338 C   0  0  0  0  0  0  0  0  0  0  0  0
   40.5164  -46.4651    8.7903 C   0  0  0  0  0  0  0  0  0  0  0  0
   39.3602  -47.3704    8.7911 C   0  0  0  0  0  0  0  0  0  0  0  0
   38.8048  -47.6395    7.4894 N   0  0  0  0  0  0  0  0  0  0  0  0
   39.3010  -48.7912    6.7576 C   0  0  0  0  0  0  0  0  0  0  0  0
   37.8169  -46.8346    6.9004 C   0  0  0  0  0  0  0  0  0  0  0  0
   37.4452  -45.8090    7.5663 O   0  0  0  0  0  0  0  0  0  0  0  0
   37.1787  -47.0703    5.5991 C   0  0  0  0  0  0  0  0  0  0  0  0
   37.4892  -45.7575    4.3858 S   0  0  0  0  0  0  0  0  0  0  0  0
   37.1330  -44.2115    5.2087 C   0  0  0  0  0  0  0  0  0  0  0  0
   38.1727  -43.4828    5.7422 C   0  0  0  0  0  0  0  0  0  0  0  0
   37.8976  -42.3002    6.3928 C   0  0  0  0  0  0  0  0  0  0  0  0
   36.5950  -41.8410    6.5131 C   0  0  0  0  0  0  0  0  0  0  0  0
   36.3679  -40.5428    7.2395 C   0  0  0  0  0  0  0  0  0  0  0  0
   35.5544  -42.5652    5.9819 C   0  0  0  0  0  0  0  0  0  0  0  0
   35.8414  -43.7521    5.3305 C   0  0  0  0  0  0  0  0  0  0  0  0
   41.4649  -46.4922    7.7939 C   0  0  0  0  0  0  0  0  0  0  0  0
   42.5435  -45.6152    7.8649 C   0  0  0  0  0  0  0  0  0  0  0  0
  1  2  1  0  0  0  0
  2  3  1  0  0  0  0
  3  4  2  0  0  0  0
  4  5  1  0  0  0  0
  5  6  2  0  0  0  0
  6  7  1  0  0  0  0
  6 21  1  0  0  0  0
  7  8  1  0  0  0  0
  8  9  1  0  0  0  0
  8 10  1  0  0  0  0
 10 11  2  0  0  0  0
 10 12  1  0  0  0  0
 12 13  1  0  0  0  0
 13 14  1  0  0  0  0
 14 15  2  0  0  0  0
 15 16  1  0  0  0  0
 16 17  2  0  0  0  0
 17 18  1  0  0  0  0
 17 19  1  0  0  0  0
 19 20  2  0  0  0  0
 20 14  1  0  0  0  0
 21 22  2  0  0  0  0
 22  3  1  0  0  0  0
M  END
>  <CHROM.1>
174.58349393,143.66365843,91.60298642,-117.22509765,-49.13178579,97.89277525
39.44317973,-44.95248898,7.18660001,-0.08649330,-0.43194402,0.02494824

>  <Name>
design_13

>  <RI>
0

>  <Rbt.Current_Directory>
/home/ziqiaoxu/icml18-jtnn/VAEdesign

>  <Rbt.Executable>
rbdock ($Id: //depot/dev/client3/rdock/2013.1/src/exe/rbdock.cxx#4 $)

>  <Rbt.Library>
libRbt.so (2013.1, Build901 2013/11/27)

>  <Rbt.Parameter_File>
/export/apps/rDock/src/rDock_2013.1_src//data/scripts/dock.prm

>  <Rbt.Receptor>
/home/ziqiaoxu/icml18-jtnn/VAEdesign/targets/RdRp-SARS-CoV-2/pocket_docking.prm

>  <SCORE>
-15.164

>  <SCORE.INTER>
-14.3867

>  <SCORE.INTER.CONST>
1

>  <SCORE.INTER.POLAR>
0

>  <SCORE.INTER.REPUL>
0.00272363

>  <SCORE.INTER.ROT>
6

>  <SCORE.INTER.VDW>
-25.8003

>  <SCORE.INTER.norm>
-0.653941

>  <SCORE.INTRA>
-0.777273

>  <SCORE.INTRA.DIHEDRAL>
0.199886

>  <SCORE.INTRA.DIHEDRAL.0>
7.20788

>  <SCORE.INTRA.POLAR>
0

>  <SCORE.INTRA.POLAR.0>
0

>  <SCORE.INTRA.REPUL>
0

>  <SCORE.INTRA.REPUL.0>
0

>  <SCORE.INTRA.VDW>
-0.877215

>  <SCORE.INTRA.VDW.0>
-1.37482

>  <SCORE.INTRA.norm>
-0.0353306

>  <SCORE.RESTR>
0

>  <SCORE.RESTR.CAVITY>
0

>  <SCORE.RESTR.norm>
0

>  <SCORE.SYSTEM>
0

>  <SCORE.SYSTEM.CONST>
0

>  <SCORE.SYSTEM.DIHEDRAL>
0

>  <SCORE.SYSTEM.norm>
0

>  <SCORE.heavy>
22

>  <SCORE.norm>
-0.689271

$$$$
design_13
 OpenBabel05252019093D

 23 25  0  0  0  0  0  0  0  0999 V2000
   42.7546  -42.5722    1.3049 C   0  0  0  0  0  0  0  0  0  0  0  0
   42.4164  -44.0384    1.4663 C   0  0  0  0  0  0  0  0  0  0  0  0
   43.5831  -44.8988    1.1450 C   0  0  0  0  0  0  0  0  0  0  0  0
   43.8303  -45.2258   -0.1599 C   0  0  0  0  0  0  0  0  0  0  0  0
   44.8604  -46.0054   -0.6126 C   0  0  0  0  0  0  0  0  0  0  0  0
   45.7141  -46.4916    0.3812 C   0  0  0  0  0  0  0  0  0  0  0  0
   45.4834  -46.1713    1.7284 C   0  0  0  0  0  0  0  0  0  0  0  0
   46.2512  -46.5399    3.2119 S   0  0  0  0  0  0  0  0  0  0  0  0
   45.2031  -45.6775    4.2636 C   0  0  0  0  0  0  0  0  0  0  0  0
   45.2599  -45.5518    5.6977 N   0  0  0  0  0  0  0  0  0  0  0  0
   44.3369  -44.7332    6.4185 C   0  0  0  0  0  0  0  0  0  0  0  0
   43.0762  -45.4929    6.6030 C   0  0  0  0  0  0  0  0  0  0  0  0
   42.5965  -46.0892    5.6301 O   0  0  0  0  0  0  0  0  0  0  0  0
   42.4724  -45.5104    7.8678 N   0  0  0  0  0  0  0  0  0  0  0  0
   41.2794  -46.1801    8.1707 C   0  0  0  0  0  0  0  0  0  0  0  0
   40.5577  -45.9236    9.2877 C   0  0  0  0  0  0  0  0  0  0  0  0
   39.3639  -46.6197    9.4996 C   0  0  0  0  0  0  0  0  0  0  0  0
   38.9455  -47.5505    8.5723 C   0  0  0  0  0  0  0  0  0  0  0  0
   39.6727  -47.8164    7.4372 C   0  0  0  0  0  0  0  0  0  0  0  0
   39.1882  -48.8284    6.4599 C   0  0  0  0  0  0  0  0  0  0  0  0
   40.8392  -47.1238    7.2477 C   0  0  0  0  0  0  0  0  0  0  0  0
   44.3303  -45.1597    3.4237 N   0  0  0  0  0  0  0  0  0  0  0  0
   44.4423  -45.3881    2.1444 C   0  0  0  0  0  0  0  0  0  0  0  0
  1  2  1  0  0  0  0
  2  3  1  0  0  0  0
  3  4  2  0  0  0  0
  4  5  1  0  0  0  0
  5  6  2  0  0  0  0
  6  7  1  0  0  0  0
  7  8  1  0  0  0  0
  8  9  1  0  0  0  0
  9 10  1  0  0  0  0
  9 22  2  0  0  0  0
 10 11  1  0  0  0  0
 11 12  1  0  0  0  0
 12 13  2  0  0  0  0
 12 14  1  0  0  0  0
 14 15  1  0  0  0  0
 15 16  2  0  0  0  0
 16 17  1  0  0  0  0
 17 18  2  0  0  0  0
 18 19  1  0  0  0  0
 19 20  1  0  0  0  0
 19 21  2  0  0  0  0
 21 15  1  0  0  0  0
 22 23  1  0  0  0  0
 23  3  1  0  0  0  0
 23  7  2  0  0  0  0
M  END
>  <CHROM.1>
-83.85257391,176.82250391,81.28915829,-46.37585309,-163.61667129,43.07507120
-45.91502880,4.60025191,1.00342243,-0.09050074,-1.41778558

>  <Name>
design_13

>  <RI>
0

>  <Rbt.Current_Directory>
/home/ziqiaoxu/icml18-jtnn/VAEdesign

>  <Rbt.Executable>
rbdock ($Id: //depot/dev/client3/rdock/2013.1/src/exe/rbdock.cxx#4 $)

>  <Rbt.Library>
libRbt.so (2013.1, Build901 2013/11/27)

>  <Rbt.Parameter_File>
/export/apps/rDock/src/rDock_2013.1_src//data/scripts/dock.prm

>  <Rbt.Receptor>
/home/ziqiaoxu/icml18-jtnn/VAEdesign/targets/RdRp-SARS-CoV-2/pocket_docking.prm

>  <SCORE>
-18.6937

>  <SCORE.INTER>
-18.2841

>  <SCORE.INTER.CONST>
1

>  <SCORE.INTER.POLAR>
-0.85008

>  <SCORE.INTER.REPUL>
0.000984927

>  <SCORE.INTER.ROT>
5

>  <SCORE.INTER.VDW>
-25.7987

>  <SCORE.INTER.norm>
-0.794959

>  <SCORE.INTRA>
-0.409619

>  <SCORE.INTRA.DIHEDRAL>
-0.747302

>  <SCORE.INTRA.DIHEDRAL.0>
6.4421

>  <SCORE.INTRA.POLAR>
0

>  <SCORE.INTRA.POLAR.0>
0

>  <SCORE.INTRA.REPUL>
0

>  <SCORE.INTRA.REPUL.0>
0

>  <SCORE.INTRA.VDW>
-0.0359685

>  <SCORE.INTRA.VDW.0>
-0.22116

>  <SCORE.INTRA.norm>
-0.0178095

>  <SCORE.RESTR>
0

>  <SCORE.RESTR.CAVITY>
0

>  <SCORE.RESTR.norm>
0

>  <SCORE.SYSTEM>
0

>  <SCORE.SYSTEM.CONST>
0

>  <SCORE.SYSTEM.DIHEDRAL>
0

>  <SCORE.SYSTEM.norm>
0

>  <SCORE.heavy>
23

>  <SCORE.norm>
-0.812769

$$$$
design_13
 OpenBabel05252019093D

 27 30  0  0  0  0  0  0  0  0999 V2000
   43.6508  -46.5986   -0.5165 C   0  0  0  0  0  0  0  0  0  0  0  0
   43.6053  -45.6164    0.4165 N   0  0  0  0  0  0  0  0  0  0  0  0
   43.5492  -44.6020    1.3813 C   0  0  0  0  0  0  0  0  0  0  0  0
   42.5767  -44.1111    1.8760 O   0  0  0  0  0  0  0  0  0  0  0  0
   44.8957  -44.0124    1.9437 C   0  0  0  0  0  0  0  0  0  0  0  0
   45.5467  -45.1356    2.6540 N   0  0  0  0  0  0  0  0  0  0  0  0
   45.5510  -45.3847    3.9450 C   0  0  0  0  0  0  0  0  0  0  0  0
   44.5799  -44.8426    4.9562 C   0  0  0  0  0  0  0  0  0  0  0  0
   43.7210  -44.0197    4.7046 O   0  0  0  0  0  0  0  0  0  0  0  0
   44.6568  -45.3110    6.3074 N   0  0  0  0  0  0  0  0  0  0  0  0
   43.9121  -44.9235    7.4270 C   0  0  0  0  0  0  0  0  0  0  0  0
   42.6561  -45.7152    7.5124 C   0  0  0  0  0  0  0  0  0  0  0  0
   41.7607  -45.7946    8.5285 C   0  0  0  0  0  0  0  0  0  0  0  0
   40.7347  -46.5872    8.1327 N   0  0  0  0  0  0  0  0  0  0  0  0
   39.6097  -46.9121    8.8481 C   0  0  0  0  0  0  0  0  0  0  0  0
   38.6974  -47.7205    8.2313 C   0  0  0  0  0  0  0  0  0  0  0  0
   38.8968  -48.1895    6.9660 C   0  0  0  0  0  0  0  0  0  0  0  0
   40.0553  -47.8267    6.2929 C   0  0  0  0  0  0  0  0  0  0  0  0
   40.9640  -47.0040    6.9065 C   0  0  0  0  0  0  0  0  0  0  0  0
   42.1481  -46.4670    6.5035 N   0  0  0  0  0  0  0  0  0  0  0  0
   46.4236  -46.4274    4.2537 C   0  0  0  0  0  0  0  0  0  0  0  0
   46.9658  -46.7763    2.9903 C   0  0  0  0  0  0  0  0  0  0  0  0
   47.8479  -47.7535    2.6688 C   0  0  0  0  0  0  0  0  0  0  0  0
   48.1645  -47.9358    1.3291 C   0  0  0  0  0  0  0  0  0  0  0  0
   47.6029  -47.1203    0.3910 C   0  0  0  0  0  0  0  0  0  0  0  0
   46.7221  -46.1208    0.6696 C   0  0  0  0  0  0  0  0  0  0  0  0
   46.3943  -45.9620    2.0679 C   0  0  0  0  0  0  0  0  0  0  0  0
  1  2  1  0  0  0  0
  2  3  1  0  0  0  0
  3  4  2  0  0  0  0
  3  5  1  0  0  0  0
  5  6  1  0  0  0  0
  6  7  1  0  0  0  0
  7  8  1  0  0  0  0
  7 21  2  0  0  0  0
  8  9  2  0  0  0  0
  8 10  1  0  0  0  0
 10 11  1  0  0  0  0
 11 12  1  0  0  0  0
 12 13  2  0  0  0  0
 13 14  1  0  0  0  0
 14 15  1  0  0  0  0
 15 16  2  0  0  0  0
 16 17  1  0  0  0  0
 17 18  2  0  0  0  0
 18 19  1  0  0  0  0
 19 20  2  0  0  0  0
 19 14  1  0  0  0  0
 20 12  1  0  0  0  0
 21 22  1  0  0  0  0
 22 23  2  0  0  0  0
 23 24  1  0  0  0  0
 24 25  2  0  0  0  0
 25 26  1  0  0  0  0
 26 27  2  0  0  0  0
 27  6  1  0  0  0  0
 27 22  1  0  0  0  0
M  END
>  <CHROM.1>
-64.47894262,-99.11096936,-5.63328146,86.96494952,169.41879517,43.74919443
-46.06916417,4.30940007,0.84325251,-0.01768655,-1.49098577

>  <Name>
design_13

>  <RI>
0

>  <Rbt.Current_Directory>
/home/ziqiaoxu/icml18-jtnn/VAEdesign

>  <Rbt.Executable>
rbdock ($Id: //depot/dev/client3/rdock/2013.1/src/exe/rbdock.cxx#4 $)

>  <Rbt.Library>
libRbt.so (2013.1, Build901 2013/11/27)

>  <Rbt.Parameter_File>
/export/apps/rDock/src/rDock_2013.1_src//data/scripts/dock.prm

>  <Rbt.Receptor>
/home/ziqiaoxu/icml18-jtnn/VAEdesign/targets/RdRp-SARS-CoV-2/pocket_docking.prm

>  <SCORE>
-22.2728

>  <SCORE.INTER>
-18.4282

>  <SCORE.INTER.CONST>
1

>  <SCORE.INTER.POLAR>
-0.894427

>  <SCORE.INTER.REPUL>
0.00188749

>  <SCORE.INTER.ROT>
5

>  <SCORE.INTER.VDW>
-25.7966

>  <SCORE.INTER.norm>
-0.682528

>  <SCORE.INTRA>
-3.84453

>  <SCORE.INTRA.DIHEDRAL>
-6.87678

>  <SCORE.INTRA.DIHEDRAL.0>
13.6564

>  <SCORE.INTRA.POLAR>
0

>  <SCORE.INTRA.POLAR.0>
0

>  <SCORE.INTRA.REPUL>
0

>  <SCORE.INTRA.REPUL.0>
0

>  <SCORE.INTRA.VDW>
-0.406143

>  <SCORE.INTRA.VDW.0>
-2.58153

>  <SCORE.INTRA.norm>
-0.14239

>  <SCORE.RESTR>
0

>  <SCORE.RESTR.CAVITY>
0

>  <SCORE.RESTR.norm>
0

>  <SCORE.SYSTEM>
0

>  <SCORE.SYSTEM.CONST>
0

>  <SCORE.SYSTEM.DIHEDRAL>
0

>  <SCORE.SYSTEM.norm>
0

>  <SCORE.heavy>
27

>  <SCORE.norm>
-0.824918

$$$$
design_10
 OpenBabel05252019093D

 26 29  0  0  0  0  0  0  0  0999 V2000
   47.4101  -44.3832    5.0403 C   0  0  0  0  0  0  0  0  0  0  0  0
   46.0725  -44.6687    5.6989 C   0  0  0  0  0  0  0  0  0  0  0  0
   45.7445  -44.4569    6.9566 N   0  0  0  0  0  0  0  0  0  0  0  0
   44.5507  -44.7458    7.3781 C   0  0  0  0  0  0  0  0  0  0  0  0
   44.1461  -44.5214    8.7989 C   0  0  0  0  0  0  0  0  0  0  0  0
   45.0603  -44.1171    9.7455 C   0  0  0  0  0  0  0  0  0  0  0  0
   44.6574  -43.9193   11.0508 C   0  0  0  0  0  0  0  0  0  0  0  0
   43.3337  -44.1140   11.4596 C   0  0  0  0  0  0  0  0  0  0  0  0
   42.4312  -44.5087   10.5287 C   0  0  0  0  0  0  0  0  0  0  0  0
   40.9841  -44.7252   10.7686 C   0  0  0  0  0  0  0  0  0  0  0  0
   40.4704  -45.7135    9.8445 N   0  0  0  0  0  0  0  0  0  0  0  0
   39.7581  -45.3806    8.6959 C   0  0  0  0  0  0  0  0  0  0  0  0
   39.4871  -44.2131    8.4121 O   0  0  0  0  0  0  0  0  0  0  0  0
   39.3154  -46.4652    7.7921 C   0  0  0  0  0  0  0  0  0  0  0  0
   39.9754  -47.6965    7.8325 C   0  0  0  0  0  0  0  0  0  0  0  0
   39.5652  -48.6953    6.9811 C   0  0  0  0  0  0  0  0  0  0  0  0
   38.5251  -48.4626    6.1196 C   0  0  0  0  0  0  0  0  0  0  0  0
   37.8524  -47.2725    6.0478 C   0  0  0  0  0  0  0  0  0  0  0  0
   36.8341  -47.0721    5.2034 N   0  0  0  0  0  0  0  0  0  0  0  0
   36.2147  -45.8722    5.1965 C   0  0  0  0  0  0  0  0  0  0  0  0
   36.5942  -44.8540    6.0265 C   0  0  0  0  0  0  0  0  0  0  0  0
   37.6523  -45.0261    6.9215 C   0  0  0  0  0  0  0  0  0  0  0  0
   38.2757  -46.2557    6.9190 C   0  0  0  0  0  0  0  0  0  0  0  0
   42.8619  -44.7072    9.2055 C   0  0  0  0  0  0  0  0  0  0  0  0
   43.6741  -45.2705    6.4610 C   0  0  0  0  0  0  0  0  0  0  0  0
   44.6387  -45.3122    5.0420 S   0  0  0  0  0  0  0  0  0  0  0  0
  1  2  1  0  0  0  0
  2  3  2  0  0  0  0
  3  4  1  0  0  0  0
  4  5  1  0  0  0  0
  4 25  2  0  0  0  0
  5  6  2  0  0  0  0
  6  7  1  0  0  0  0
  7  8  2  0  0  0  0
  8  9  1  0  0  0  0
  9 10  1  0  0  0  0
  9 24  2  0  0  0  0
 10 11  1  0  0  0  0
 11 12  1  0  0  0  0
 12 13  2  0  0  0  0
 12 14  1  0  0  0  0
 14 15  2  0  0  0  0
 15 16  1  0  0  0  0
 16 17  2  0  0  0  0
 17 18  1  0  0  0  0
 18 19  2  0  0  0  0
 19 20  1  0  0  0  0
 20 21  2  0  0  0  0
 21 22  1  0  0  0  0
 22 23  2  0  0  0  0
 23 14  1  0  0  0  0
 23 18  1  0  0  0  0
 24  5  1  0  0  0  0
 25 26  1  0  0  0  0
 26  2  1  0  0  0  0
M  END
>  <CHROM.1>
-6.16336852,-151.93225849,-100.53754206,-21.77009616,41.56824109,-45.45631097
7.55909507,-0.19519140,-0.21714937,-1.82713567

>  <Name>
design_10

>  <RI>
0

>  <Rbt.Current_Directory>
/home/ziqiaoxu/icml18-jtnn/VAEdesign

>  <Rbt.Executable>
rbdock ($Id: //depot/dev/client3/rdock/2013.1/src/exe/rbdock.cxx#4 $)

>  <Rbt.Library>
libRbt.so (2013.1, Build901 2013/11/27)

>  <Rbt.Parameter_File>
/export/apps/rDock/src/rDock_2013.1_src//data/scripts/dock.prm

>  <Rbt.Receptor>
/home/ziqiaoxu/icml18-jtnn/VAEdesign/targets/RdRp-SARS-CoV-2/pocket_docking.prm

>  <SCORE>
-20.2048

>  <SCORE.INTER>
-19.246

>  <SCORE.INTER.CONST>
1

>  <SCORE.INTER.POLAR>
-0.862832

>  <SCORE.INTER.REPUL>
0.0157518

>  <SCORE.INTER.ROT>
4

>  <SCORE.INTER.VDW>
-25.7912

>  <SCORE.INTER.norm>
-0.740232

>  <SCORE.INTRA>
-0.958725

>  <SCORE.INTRA.DIHEDRAL>
-8.7426

>  <SCORE.INTRA.DIHEDRAL.0>
12.5675

>  <SCORE.INTRA.POLAR>
0

>  <SCORE.INTRA.POLAR.0>
0

>  <SCORE.INTRA.REPUL>
0

>  <SCORE.INTRA.REPUL.0>
0

>  <SCORE.INTRA.VDW>
3.41257

>  <SCORE.INTRA.VDW.0>
-2.01016

>  <SCORE.INTRA.norm>
-0.036874

>  <SCORE.RESTR>
0

>  <SCORE.RESTR.CAVITY>
0

>  <SCORE.RESTR.norm>
0

>  <SCORE.SYSTEM>
0

>  <SCORE.SYSTEM.CONST>
0

>  <SCORE.SYSTEM.DIHEDRAL>
0

>  <SCORE.SYSTEM.norm>
0

>  <SCORE.heavy>
26

>  <SCORE.norm>
-0.777106

$$$$
design_11
 OpenBabel05252019093D

 25 28  0  0  0  0  0  0  0  0999 V2000
   40.6544  -43.2304    8.3419 O   0  0  0  0  0  0  0  0  0  0  0  0
   40.1487  -42.7461    9.4047 C   0  0  0  0  0  0  0  0  0  0  0  0
   39.3199  -41.5267    9.3814 C   0  0  0  0  0  0  0  0  0  0  0  0
   39.9983  -40.5201    8.4705 C   0  0  0  0  0  0  0  0  0  0  0  0
   40.2669  -39.2588    8.9364 C   0  0  0  0  0  0  0  0  0  0  0  0
   41.0097  -38.5461    7.5596 S   0  0  0  0  0  0  0  0  0  0  0  0
   40.9254  -39.8852    6.5078 C   0  0  0  0  0  0  0  0  0  0  0  0
   41.3822  -40.0047    5.1256 C   0  0  0  0  0  0  0  0  0  0  0  0
   41.4682  -41.2271    4.4972 C   0  0  0  0  0  0  0  0  0  0  0  0
   41.9075  -41.3248    3.1732 C   0  0  0  0  0  0  0  0  0  0  0  0
   42.2420  -40.1854    2.5377 N   0  0  0  0  0  0  0  0  0  0  0  0
   42.1779  -38.9683    3.0994 C   0  0  0  0  0  0  0  0  0  0  0  0
   41.7426  -38.8881    4.4061 C   0  0  0  0  0  0  0  0  0  0  0  0
   40.3380  -40.8034    7.2560 N   0  0  0  0  0  0  0  0  0  0  0  0
   40.4179  -43.4325   10.6179 N   0  0  0  0  0  0  0  0  0  0  0  0
   41.2274  -44.6280   10.6592 C   0  0  0  0  0  0  0  0  0  0  0  0
   40.7002  -45.6184    9.6701 C   0  0  0  0  0  0  0  0  0  0  0  0
   41.2518  -45.9517    8.4784 N   0  0  0  0  0  0  0  0  0  0  0  0
   40.5022  -46.8770    7.8570 C   0  0  0  0  0  0  0  0  0  0  0  0
   40.5944  -47.5541    6.6476 C   0  0  0  0  0  0  0  0  0  0  0  0
   39.6575  -48.4812    6.2440 C   0  0  0  0  0  0  0  0  0  0  0  0
   38.5864  -48.7476    7.0725 C   0  0  0  0  0  0  0  0  0  0  0  0
   38.4851  -48.0781    8.2803 C   0  0  0  0  0  0  0  0  0  0  0  0
   39.4295  -47.1479    8.6801 C   0  0  0  0  0  0  0  0  0  0  0  0
   39.5877  -46.3670    9.7633 N   0  0  0  0  0  0  0  0  0  0  0  0
  1  2  2  0  0  0  0
  2  3  1  0  0  0  0
  2 15  1  0  0  0  0
  3  4  1  0  0  0  0
  4  5  2  0  0  0  0
  5  6  1  0  0  0  0
  6  7  1  0  0  0  0
  7  8  1  0  0  0  0
  7 14  2  0  0  0  0
  8  9  2  0  0  0  0
  9 10  1  0  0  0  0
 10 11  2  0  0  0  0
 11 12  1  0  0  0  0
 12 13  2  0  0  0  0
 13  8  1  0  0  0  0
 14  4  1  0  0  0  0
 15 16  1  0  0  0  0
 16 17  1  0  0  0  0
 17 18  2  0  0  0  0
 18 19  1  0  0  0  0
 19 20  2  0  0  0  0
 20 21  1  0  0  0  0
 21 22  2  0  0  0  0
 22 23  1  0  0  0  0
 23 24  2  0  0  0  0
 24 25  1  0  0  0  0
 24 19  1  0  0  0  0
 25 17  1  0  0  0  0
M  END
>  <CHROM.1>
-43.53327871,-126.61564893,167.55128813,-52.40157610,105.96911295,40.58353799
-42.95545026,7.35937541,2.54744914,-1.33718010,-2.55211361

>  <Name>
design_11

>  <RI>
0

>  <Rbt.Current_Directory>
/home/ziqiaoxu/icml18-jtnn/VAEdesign

>  <Rbt.Executable>
rbdock ($Id: //depot/dev/client3/rdock/2013.1/src/exe/rbdock.cxx#4 $)

>  <Rbt.Library>
libRbt.so (2013.1, Build901 2013/11/27)

>  <Rbt.Parameter_File>
/export/apps/rDock/src/rDock_2013.1_src//data/scripts/dock.prm

>  <Rbt.Receptor>
/home/ziqiaoxu/icml18-jtnn/VAEdesign/targets/RdRp-SARS-CoV-2/pocket_docking.prm

>  <SCORE>
-20.8315

>  <SCORE.INTER>
-20.0725

>  <SCORE.INTER.CONST>
1

>  <SCORE.INTER.POLAR>
-1.37745

>  <SCORE.INTER.REPUL>
0

>  <SCORE.INTER.ROT>
5

>  <SCORE.INTER.VDW>
-25.7892

>  <SCORE.INTER.norm>
-0.8029

>  <SCORE.INTRA>
-0.771359

>  <SCORE.INTRA.DIHEDRAL>
-0.735093

>  <SCORE.INTRA.DIHEDRAL.0>
5.2932

>  <SCORE.INTRA.POLAR>
0.0433076

>  <SCORE.INTRA.POLAR.0>
-0.0433076

>  <SCORE.INTRA.REPUL>
0

>  <SCORE.INTRA.REPUL.0>
0

>  <SCORE.INTRA.VDW>
-0.551058

>  <SCORE.INTRA.VDW.0>
-1.21076

>  <SCORE.INTRA.norm>
-0.0308543

>  <SCORE.RESTR>
0.0123907

>  <SCORE.RESTR.CAVITY>
0.0123907

>  <SCORE.RESTR.norm>
0.000495628

>  <SCORE.SYSTEM>
0

>  <SCORE.SYSTEM.CONST>
0

>  <SCORE.SYSTEM.DIHEDRAL>
0

>  <SCORE.SYSTEM.norm>
0

>  <SCORE.heavy>
25

>  <SCORE.norm>
-0.833259

$$$$
design_11
 OpenBabel05252019093D

 25 26  0  0  0  0  0  0  0  0999 V2000
   41.4942  -46.0765    5.9904 C   0  0  0  0  0  0  0  0  0  0  0  0
   40.5233  -46.9214    6.7779 C   0  0  0  0  0  0  0  0  0  0  0  0
   40.0250  -48.0776    6.1942 C   0  0  0  0  0  0  0  0  0  0  0  0
   39.1069  -48.9048    6.7979 C   0  0  0  0  0  0  0  0  0  0  0  0
   38.6842  -48.5274    8.0544 C   0  0  0  0  0  0  0  0  0  0  0  0
   39.1562  -47.3991    8.6524 C   0  0  0  0  0  0  0  0  0  0  0  0
   40.0971  -46.5630    8.0196 C   0  0  0  0  0  0  0  0  0  0  0  0
   40.5634  -45.4210    8.7832 C   0  0  0  0  0  0  0  0  0  0  0  0
   41.6706  -44.8960    8.3804 O   0  0  0  0  0  0  0  0  0  0  0  0
   39.9416  -44.8406    9.8858 N   0  0  0  0  0  0  0  0  0  0  0  0
   40.5615  -43.6844   10.5514 C   0  0  0  0  0  0  0  0  0  0  0  0
   39.6501  -42.4878   10.4707 C   0  0  0  0  0  0  0  0  0  0  0  0
   39.8196  -41.8840    9.1069 C   0  0  0  0  0  0  0  0  0  0  0  0
   39.9944  -42.6459    8.1067 O   0  0  0  0  0  0  0  0  0  0  0  0
   39.7827  -40.4994    8.9552 N   0  0  0  0  0  0  0  0  0  0  0  0
   39.9312  -39.7463    7.7636 C   0  0  0  0  0  0  0  0  0  0  0  0
   39.9359  -38.3746    7.6863 C   0  0  0  0  0  0  0  0  0  0  0  0
   40.1185  -37.7064    6.4634 C   0  0  0  0  0  0  0  0  0  0  0  0
   40.3005  -38.3929    5.2887 C   0  0  0  0  0  0  0  0  0  0  0  0
   40.5027  -37.5665    3.7584 S   0  0  0  0  0  0  0  0  0  0  0  0
   39.1420  -36.4966    3.4984 N   0  0  0  0  0  0  0  0  0  0  0  0
   40.6598  -38.5049    2.6223 O   0  0  0  0  0  0  0  0  0  0  0  0
   41.7221  -36.6943    3.8837 O   0  0  0  0  0  0  0  0  0  0  0  0
   40.2970  -39.7707    5.3604 C   0  0  0  0  0  0  0  0  0  0  0  0
   40.1189  -40.4305    6.5545 C   0  0  0  0  0  0  0  0  0  0  0  0
  1  2  1  0  0  0  0
  2  3  2  0  0  0  0
  3  4  1  0  0  0  0
  4  5  2  0  0  0  0
  5  6  1  0  0  0  0
  6  7  2  0  0  0  0
  7  8  1  0  0  0  0
  7  2  1  0  0  0  0
  8  9  2  0  0  0  0
  8 10  1  0  0  0  0
 10 11  1  0  0  0  0
 11 12  1  0  0  0  0
 12 13  1  0  0  0  0
 13 14  2  0  0  0  0
 13 15  1  0  0  0  0
 15 16  1  0  0  0  0
 16 17  2  0  0  0  0
 17 18  1  0  0  0  0
 18 19  2  0  0  0  0
 19 20  1  0  0  0  0
 19 24  1  0  0  0  0
 20 21  1  0  0  0  0
 20 22  2  0  0  0  0
 20 23  2  0  0  0  0
 24 25  2  0  0  0  0
 25 16  1  0  0  0  0
M  END
>  <CHROM.1>
-16.52158932,118.38248426,-80.29511959,36.92203800,-177.35592583,-55.47572717
-179.92506127,40.19098540,-42.14075772,6.88610010,-2.11675143,1.48975793
0.17022033

>  <Name>
design_11

>  <RI>
0

>  <Rbt.Current_Directory>
/home/ziqiaoxu/icml18-jtnn/VAEdesign

>  <Rbt.Executable>
rbdock ($Id: //depot/dev/client3/rdock/2013.1/src/exe/rbdock.cxx#4 $)

>  <Rbt.Library>
libRbt.so (2013.1, Build901 2013/11/27)

>  <Rbt.Parameter_File>
/export/apps/rDock/src/rDock_2013.1_src//data/scripts/dock.prm

>  <Rbt.Receptor>
/home/ziqiaoxu/icml18-jtnn/VAEdesign/targets/RdRp-SARS-CoV-2/pocket_docking.prm

>  <SCORE>
-26.9405

>  <SCORE.INTER>
-25.6953

>  <SCORE.INTER.CONST>
1

>  <SCORE.INTER.POLAR>
-3.61972

>  <SCORE.INTER.REPUL>
0

>  <SCORE.INTER.ROT>
7

>  <SCORE.INTER.VDW>
-25.7883

>  <SCORE.INTER.norm>
-1.02781

>  <SCORE.INTRA>
-1.26052

>  <SCORE.INTRA.DIHEDRAL>
-2.0603

>  <SCORE.INTRA.DIHEDRAL.0>
9.3806

>  <SCORE.INTRA.POLAR>
0

>  <SCORE.INTRA.POLAR.0>
0

>  <SCORE.INTRA.REPUL>
0

>  <SCORE.INTRA.REPUL.0>
0

>  <SCORE.INTRA.VDW>
-0.230374

>  <SCORE.INTRA.VDW.0>
0.949338

>  <SCORE.INTRA.norm>
-0.050421

>  <SCORE.RESTR>
0.0153379

>  <SCORE.RESTR.CAVITY>
0.0153379

>  <SCORE.RESTR.norm>
0.000613518

>  <SCORE.SYSTEM>
0

>  <SCORE.SYSTEM.CONST>
0

>  <SCORE.SYSTEM.DIHEDRAL>
0

>  <SCORE.SYSTEM.norm>
0

>  <SCORE.heavy>
25

>  <SCORE.norm>
-1.07762

$$$$
design_1
 OpenBabel05252019093D

 25 28  0  0  0  0  0  0  0  0999 V2000
   36.3893  -42.2119    6.1428 C   0  0  0  0  0  0  0  0  0  0  0  0
   36.4875  -43.6947    6.1015 C   0  0  0  0  0  0  0  0  0  0  0  0
   35.5828  -44.4657    5.4732 N   0  0  0  0  0  0  0  0  0  0  0  0
   35.9609  -45.7335    5.6251 N   0  0  0  0  0  0  0  0  0  0  0  0
   37.0971  -45.8037    6.3419 C   0  0  0  0  0  0  0  0  0  0  0  0
   37.7931  -47.0332    6.6909 C   0  0  0  0  0  0  0  0  0  0  0  0
   37.7071  -48.0968    5.7877 C   0  0  0  0  0  0  0  0  0  0  0  0
   38.3348  -49.3012    6.0197 C   0  0  0  0  0  0  0  0  0  0  0  0
   39.0544  -49.4124    7.1848 C   0  0  0  0  0  0  0  0  0  0  0  0
   39.1572  -48.3767    8.0969 C   0  0  0  0  0  0  0  0  0  0  0  0
   38.5273  -47.1760    7.8611 C   0  0  0  0  0  0  0  0  0  0  0  0
   38.6389  -46.0565    8.8048 C   0  0  0  0  0  0  0  0  0  0  0  0
   39.9347  -45.8445    9.3780 N   0  0  0  0  0  0  0  0  0  0  0  0
   40.4363  -44.5917    9.8289 C   0  0  0  0  0  0  0  0  0  0  0  0
   39.6624  -43.5887    9.6974 O   0  0  0  0  0  0  0  0  0  0  0  0
   41.7435  -44.4196   10.4098 C   0  0  0  0  0  0  0  0  0  0  0  0
   42.9522  -44.5090    9.7510 C   0  0  0  0  0  0  0  0  0  0  0  0
   43.9549  -44.2789   10.6688 C   0  0  0  0  0  0  0  0  0  0  0  0
   45.3410  -44.2397   10.5944 C   0  0  0  0  0  0  0  0  0  0  0  0
   46.1273  -43.9795   11.6969 C   0  0  0  0  0  0  0  0  0  0  0  0
   45.5259  -43.7482   12.9237 C   0  0  0  0  0  0  0  0  0  0  0  0
   44.1511  -43.7894   12.9863 C   0  0  0  0  0  0  0  0  0  0  0  0
   43.3600  -44.0484   11.8899 C   0  0  0  0  0  0  0  0  0  0  0  0
   42.0269  -44.1448   11.6783 N   0  0  0  0  0  0  0  0  0  0  0  0
   37.3909  -44.5152    6.6182 N   0  0  0  0  0  0  0  0  0  0  0  0
  1  2  1  0  0  0  0
  2  3  2  0  0  0  0
  3  4  1  0  0  0  0
  4  5  1  0  0  0  0
  5  6  1  0  0  0  0
  5 25  2  0  0  0  0
  6  7  2  0  0  0  0
  7  8  1  0  0  0  0
  8  9  2  0  0  0  0
  9 10  1  0  0  0  0
 10 11  2  0  0  0  0
 11 12  1  0  0  0  0
 11  6  1  0  0  0  0
 12 13  1  0  0  0  0
 13 14  1  0  0  0  0
 14 15  2  0  0  0  0
 14 16  1  0  0  0  0
 16 17  2  0  0  0  0
 17 18  1  0  0  0  0
 18 19  2  0  0  0  0
 19 20  1  0  0  0  0
 20 21  2  0  0  0  0
 21 22  1  0  0  0  0
 22 23  2  0  0  0  0
 23 24  1  0  0  0  0
 23 18  1  0  0  0  0
 24 16  1  0  0  0  0
 25  2  1  0  0  0  0
M  END
>  <CHROM.1>
31.36141056,-138.24104674,152.07502839,70.07365016,40.06860663,-45.29283462
8.71183953,2.80361561,0.59768217,-2.93229056

>  <Name>
design_1

>  <RI>
0

>  <Rbt.Current_Directory>
/home/ziqiaoxu/icml18-jtnn/VAEdesign

>  <Rbt.Executable>
rbdock ($Id: //depot/dev/client3/rdock/2013.1/src/exe/rbdock.cxx#4 $)

>  <Rbt.Library>
libRbt.so (2013.1, Build901 2013/11/27)

>  <Rbt.Parameter_File>
/export/apps/rDock/src/rDock_2013.1_src//data/scripts/dock.prm

>  <Rbt.Receptor>
/home/ziqiaoxu/icml18-jtnn/VAEdesign/targets/RdRp-SARS-CoV-2/pocket_docking.prm

>  <SCORE>
-17.4735

>  <SCORE.INTER>
-23.7152

>  <SCORE.INTER.CONST>
1

>  <SCORE.INTER.POLAR>
-2.15608

>  <SCORE.INTER.REPUL>
0

>  <SCORE.INTER.ROT>
4

>  <SCORE.INTER.VDW>
-25.7846

>  <SCORE.INTER.norm>
-0.948609

>  <SCORE.INTRA>
6.24173

>  <SCORE.INTRA.DIHEDRAL>
13.5187

>  <SCORE.INTRA.DIHEDRAL.0>
1.92572

>  <SCORE.INTRA.POLAR>
0

>  <SCORE.INTRA.POLAR.0>
0

>  <SCORE.INTRA.REPUL>
0

>  <SCORE.INTRA.REPUL.0>
0

>  <SCORE.INTRA.VDW>
-0.517648

>  <SCORE.INTRA.VDW.0>
-1.38902

>  <SCORE.INTRA.norm>
0.249669

>  <SCORE.RESTR>
0

>  <SCORE.RESTR.CAVITY>
0

>  <SCORE.RESTR.norm>
0

>  <SCORE.SYSTEM>
0

>  <SCORE.SYSTEM.CONST>
0

>  <SCORE.SYSTEM.DIHEDRAL>
0

>  <SCORE.SYSTEM.norm>
0

>  <SCORE.heavy>
25

>  <SCORE.norm>
-0.69894

$$$$
design_8
 OpenBabel05252019093D

 27 30  0  0  0  0  0  0  0  0999 V2000
   39.6936  -46.6557   10.0490 N   0  0  0  0  0  0  0  0  0  0  0  0
   39.1892  -47.0218    8.7830 C   0  0  0  0  0  0  0  0  0  0  0  0
   38.0502  -47.5369    8.7077 O   0  0  0  0  0  0  0  0  0  0  0  0
   39.9426  -46.8247    7.5498 C   0  0  0  0  0  0  0  0  0  0  0  0
   41.1850  -46.2451    7.5449 C   0  0  0  0  0  0  0  0  0  0  0  0
   41.9236  -46.0488    6.3610 C   0  0  0  0  0  0  0  0  0  0  0  0
   41.4219  -46.4341    5.1592 C   0  0  0  0  0  0  0  0  0  0  0  0
   42.1047  -46.2782    3.9363 N   0  0  0  0  0  0  0  0  0  0  0  0
   43.3527  -45.6956    3.7072 C   0  0  0  0  0  0  0  0  0  0  0  0
   44.0923  -45.2034    4.5787 O   0  0  0  0  0  0  0  0  0  0  0  0
   43.8889  -45.6357    2.3057 C   0  0  0  0  0  0  0  0  0  0  0  0
   43.0709  -44.9617    1.4357 O   0  0  0  0  0  0  0  0  0  0  0  0
   42.9476  -43.6342    1.1598 C   0  0  0  0  0  0  0  0  0  0  0  0
   41.9079  -42.8030    1.5023 C   0  0  0  0  0  0  0  0  0  0  0  0
   41.8969  -41.4599    1.1650 C   0  0  0  0  0  0  0  0  0  0  0  0
   42.9540  -40.9233    0.4633 C   0  0  0  0  0  0  0  0  0  0  0  0
   43.2075  -39.7074    0.0172 O   0  0  0  0  0  0  0  0  0  0  0  0
   44.3635  -39.6714   -0.6097 C   0  0  0  0  0  0  0  0  0  0  0  0
   44.9294  -40.9245   -0.5921 C   0  0  0  0  0  0  0  0  0  0  0  0
   44.0285  -41.7226    0.0933 C   0  0  0  0  0  0  0  0  0  0  0  0
   43.9998  -43.0525    0.4487 C   0  0  0  0  0  0  0  0  0  0  0  0
   46.2366  -41.2456   -1.2087 C   0  0  0  0  0  0  0  0  0  0  0  0
   46.4560  -40.2577   -2.3442 C   0  0  0  0  0  0  0  0  0  0  0  0
   46.4301  -38.8768   -1.6850 C   0  0  0  0  0  0  0  0  0  0  0  0
   45.0409  -38.5385   -1.2613 C   0  0  0  0  0  0  0  0  0  0  0  0
   40.1449  -47.0284    5.1743 C   0  0  0  0  0  0  0  0  0  0  0  0
   39.4358  -47.2141    6.3320 C   0  0  0  0  0  0  0  0  0  0  0  0
  1  2  1  0  0  0  0
  2  3  2  0  0  0  0
  2  4  1  0  0  0  0
  4  5  2  0  0  0  0
  5  6  1  0  0  0  0
  6  7  2  0  0  0  0
  7  8  1  0  0  0  0
  7 26  1  0  0  0  0
  8  9  1  0  0  0  0
  9 10  2  0  0  0  0
  9 11  1  0  0  0  0
 11 12  1  0  0  0  0
 12 13  1  0  0  0  0
 13 14  2  0  0  0  0
 14 15  1  0  0  0  0
 15 16  2  0  0  0  0
 16 17  1  0  0  0  0
 17 18  1  0  0  0  0
 18 19  2  0  0  0  0
 19 20  1  0  0  0  0
 19 22  1  0  0  0  0
 20 21  2  0  0  0  0
 20 16  1  0  0  0  0
 21 13  1  0  0  0  0
 22 23  1  0  0  0  0
 23 24  1  0  0  0  0
 24 25  1  0  0  0  0
 25 18  1  0  0  0  0
 26 27  2  0  0  0  0
 27  4  1  0  0  0  0
M  END
>  <CHROM.1>
-1.22612193,-1.84219068,58.41472770,84.31335337,-108.42922949,42.65975508
-43.78347323,2.95683984,2.18208885,-0.76083213,2.68117571

>  <Name>
design_8

>  <RI>
0

>  <Rbt.Current_Directory>
/home/ziqiaoxu/icml18-jtnn/VAEdesign

>  <Rbt.Executable>
rbdock ($Id: //depot/dev/client3/rdock/2013.1/src/exe/rbdock.cxx#4 $)

>  <Rbt.Library>
libRbt.so (2013.1, Build901 2013/11/27)

>  <Rbt.Parameter_File>
/export/apps/rDock/src/rDock_2013.1_src//data/scripts/dock.prm

>  <Rbt.Receptor>
/home/ziqiaoxu/icml18-jtnn/VAEdesign/targets/RdRp-SARS-CoV-2/pocket_docking.prm

>  <SCORE>
-22.9404

>  <SCORE.INTER>
-25.8188

>  <SCORE.INTER.CONST>
1

>  <SCORE.INTER.POLAR>
-3.06891

>  <SCORE.INTER.REPUL>
0

>  <SCORE.INTER.ROT>
5

>  <SCORE.INTER.VDW>
-25.7845

>  <SCORE.INTER.norm>
-0.956251

>  <SCORE.INTRA>
2.8784

>  <SCORE.INTRA.DIHEDRAL>
6.70278

>  <SCORE.INTRA.DIHEDRAL.0>
1.51097

>  <SCORE.INTRA.POLAR>
0

>  <SCORE.INTRA.POLAR.0>
0

>  <SCORE.INTRA.REPUL>
0

>  <SCORE.INTRA.REPUL.0>
0

>  <SCORE.INTRA.VDW>
-0.472988

>  <SCORE.INTRA.VDW.0>
-0.706668

>  <SCORE.INTRA.norm>
0.106607

>  <SCORE.RESTR>
0

>  <SCORE.RESTR.CAVITY>
0

>  <SCORE.RESTR.norm>
0

>  <SCORE.SYSTEM>
0

>  <SCORE.SYSTEM.CONST>
0

>  <SCORE.SYSTEM.DIHEDRAL>
0

>  <SCORE.SYSTEM.norm>
0

>  <SCORE.heavy>
27

>  <SCORE.norm>
-0.849643

$$$$
design_13
 OpenBabel05252019093D

 24 27  0  0  0  0  0  0  0  0999 V2000
   47.4291  -44.3448    5.2408 C   0  0  0  0  0  0  0  0  0  0  0  0
   46.0607  -44.6629    5.8048 C   0  0  0  0  0  0  0  0  0  0  0  0
   45.6180  -44.4652    7.0304 N   0  0  0  0  0  0  0  0  0  0  0  0
   44.4069  -44.7975    7.3444 C   0  0  0  0  0  0  0  0  0  0  0  0
   43.8623  -44.5877    8.7132 C   0  0  0  0  0  0  0  0  0  0  0  0
   44.6854  -44.1139    9.7241 C   0  0  0  0  0  0  0  0  0  0  0  0
   44.2229  -43.9048   10.9931 C   0  0  0  0  0  0  0  0  0  0  0  0
   42.8970  -44.1791   11.2543 C   0  0  0  0  0  0  0  0  0  0  0  0
   42.0649  -44.6475   10.2737 C   0  0  0  0  0  0  0  0  0  0  0  0
   40.6318  -44.9251   10.6090 C   0  0  0  0  0  0  0  0  0  0  0  0
   40.1952  -46.0151    9.7114 N   0  0  0  0  0  0  0  0  0  0  0  0
   39.3853  -45.7220    8.5958 C   0  0  0  0  0  0  0  0  0  0  0  0
   39.0871  -44.4819    8.4571 O   0  0  0  0  0  0  0  0  0  0  0  0
   38.8676  -46.6588    7.6155 C   0  0  0  0  0  0  0  0  0  0  0  0
   39.5587  -48.2380    7.3837 S   0  0  0  0  0  0  0  0  0  0  0  0
   38.5536  -48.8121    6.1497 C   0  0  0  0  0  0  0  0  0  0  0  0
   37.7013  -47.7656    5.9436 C   0  0  0  0  0  0  0  0  0  0  0  0
   37.8629  -46.6580    6.6979 C   0  0  0  0  0  0  0  0  0  0  0  0
   36.9471  -45.4632    6.5678 C   0  0  0  0  0  0  0  0  0  0  0  0
   36.4643  -45.1645    5.1572 C   0  0  0  0  0  0  0  0  0  0  0  0
   37.3913  -44.2396    5.8559 C   0  0  0  0  0  0  0  0  0  0  0  0
   42.5434  -44.8548    8.9966 C   0  0  0  0  0  0  0  0  0  0  0  0
   43.6294  -45.3530    6.3552 C   0  0  0  0  0  0  0  0  0  0  0  0
   44.7083  -45.3574    5.0292 S   0  0  0  0  0  0  0  0  0  0  0  0
  1  2  1  0  0  0  0
  2  3  2  0  0  0  0
  3  4  1  0  0  0  0
  4  5  1  0  0  0  0
  4 23  2  0  0  0  0
  5  6  2  0  0  0  0
  6  7  1  0  0  0  0
  7  8  2  0  0  0  0
  8  9  1  0  0  0  0
  9 10  1  0  0  0  0
  9 22  2  0  0  0  0
 10 11  1  0  0  0  0
 11 12  1  0  0  0  0
 12 13  2  0  0  0  0
 12 14  1  0  0  0  0
 14 15  1  0  0  0  0
 15 16  1  0  0  0  0
 16 17  2  0  0  0  0
 17 18  1  0  0  0  0
 18 19  1  0  0  0  0
 18 14  2  0  0  0  0
 19 20  1  0  0  0  0
 20 21  1  0  0  0  0
 21 19  1  0  0  0  0
 22  5  1  0  0  0  0
 23 24  1  0  0  0  0
 24  2  1  0  0  0  0
M  END
>  <CHROM.1>
-4.78632691,-150.45718932,-103.42779591,-19.27526663,145.66208428,41.50739821
-45.52791186,7.56063995,-0.12291929,-0.23513831,-1.83225646

>  <Name>
design_13

>  <RI>
0

>  <Rbt.Current_Directory>
/home/ziqiaoxu/icml18-jtnn/VAEdesign

>  <Rbt.Executable>
rbdock ($Id: //depot/dev/client3/rdock/2013.1/src/exe/rbdock.cxx#4 $)

>  <Rbt.Library>
libRbt.so (2013.1, Build901 2013/11/27)

>  <Rbt.Parameter_File>
/export/apps/rDock/src/rDock_2013.1_src//data/scripts/dock.prm

>  <Rbt.Receptor>
/home/ziqiaoxu/icml18-jtnn/VAEdesign/targets/RdRp-SARS-CoV-2/pocket_docking.prm

>  <SCORE>
-18.7083

>  <SCORE.INTER>
-18.562

>  <SCORE.INTER.CONST>
1

>  <SCORE.INTER.POLAR>
-0.93521

>  <SCORE.INTER.REPUL>
0

>  <SCORE.INTER.ROT>
5

>  <SCORE.INTER.VDW>
-25.7822

>  <SCORE.INTER.norm>
-0.773415

>  <SCORE.INTRA>
-0.146314

>  <SCORE.INTRA.DIHEDRAL>
1.32153

>  <SCORE.INTRA.DIHEDRAL.0>
2.94984

>  <SCORE.INTRA.POLAR>
0

>  <SCORE.INTRA.POLAR.0>
0

>  <SCORE.INTRA.REPUL>
0

>  <SCORE.INTRA.REPUL.0>
0

>  <SCORE.INTRA.VDW>
-0.80708

>  <SCORE.INTRA.VDW.0>
-0.641723

>  <SCORE.INTRA.norm>
-0.00609643

>  <SCORE.RESTR>
0

>  <SCORE.RESTR.CAVITY>
0

>  <SCORE.RESTR.norm>
0

>  <SCORE.SYSTEM>
0

>  <SCORE.SYSTEM.CONST>
0

>  <SCORE.SYSTEM.DIHEDRAL>
0

>  <SCORE.SYSTEM.norm>
0

>  <SCORE.heavy>
24

>  <SCORE.norm>
-0.779511

$$$$
design_1
 OpenBabel05252019093D

 26 28  0  0  0  0  0  0  0  0999 V2000
   38.6456  -49.0389    6.3645 C   0  0  0  0  0  0  0  0  0  0  0  0
   38.8463  -48.1295    7.5011 C   0  0  0  0  0  0  0  0  0  0  0  0
   37.9863  -47.8111    8.5072 N   0  0  0  0  0  0  0  0  0  0  0  0
   38.5665  -46.9477    9.3273 N   0  0  0  0  0  0  0  0  0  0  0  0
   39.8125  -46.6852    8.8763 C   0  0  0  0  0  0  0  0  0  0  0  0
   40.7865  -45.7799    9.4805 C   0  0  0  0  0  0  0  0  0  0  0  0
   40.5430  -45.2440   10.7217 C   0  0  0  0  0  0  0  0  0  0  0  0
   41.4963  -44.4052   11.2493 C   0  0  0  0  0  0  0  0  0  0  0  0
   42.6742  -44.1024   10.5547 C   0  0  0  0  0  0  0  0  0  0  0  0
   42.9342  -44.6294    9.3136 C   0  0  0  0  0  0  0  0  0  0  0  0
   44.1352  -44.3575    8.5526 C   0  0  0  0  0  0  0  0  0  0  0  0
   44.9015  -43.4378    8.9862 O   0  0  0  0  0  0  0  0  0  0  0  0
   44.4401  -45.0830    7.3812 N   0  0  0  0  0  0  0  0  0  0  0  0
   45.6811  -44.7105    6.7071 C   0  0  0  0  0  0  0  0  0  0  0  0
   45.6274  -45.1235    5.2994 C   0  0  0  0  0  0  0  0  0  0  0  0
   46.7460  -45.6371    4.6873 C   0  0  0  0  0  0  0  0  0  0  0  0
   46.6602  -46.0610    3.3570 C   0  0  0  0  0  0  0  0  0  0  0  0
   45.4948  -45.9781    2.6486 C   0  0  0  0  0  0  0  0  0  0  0  0
   45.3801  -46.3857    1.3618 O   0  0  0  0  0  0  0  0  0  0  0  0
   44.2947  -46.3376    0.4980 C   0  0  0  0  0  0  0  0  0  0  0  0
   44.6529  -46.9254   -0.8305 C   0  0  0  0  0  0  0  0  0  0  0  0
   43.8162  -44.9014    0.2738 C   0  0  0  0  0  0  0  0  0  0  0  0
   44.4269  -45.4632    3.2985 N   0  0  0  0  0  0  0  0  0  0  0  0
   44.4618  -45.0446    4.5720 C   0  0  0  0  0  0  0  0  0  0  0  0
   41.9415  -45.4819    8.8016 C   0  0  0  0  0  0  0  0  0  0  0  0
   39.9603  -47.4295    7.7450 N   0  0  0  0  0  0  0  0  0  0  0  0
  1  2  1  0  0  0  0
  2  3  2  0  0  0  0
  3  4  1  0  0  0  0
  4  5  1  0  0  0  0
  5  6  1  0  0  0  0
  5 26  2  0  0  0  0
  6  7  2  0  0  0  0
  7  8  1  0  0  0  0
  8  9  2  0  0  0  0
  9 10  1  0  0  0  0
 10 11  1  0  0  0  0
 10 25  2  0  0  0  0
 11 12  2  0  0  0  0
 11 13  1  0  0  0  0
 13 14  1  0  0  0  0
 14 15  1  0  0  0  0
 15 16  2  0  0  0  0
 16 17  1  0  0  0  0
 17 18  2  0  0  0  0
 18 19  1  0  0  0  0
 18 23  1  0  0  0  0
 19 20  1  0  0  0  0
 20 21  1  0  0  0  0
 20 22  1  0  0  0  0
 23 24  2  0  0  0  0
 24 15  1  0  0  0  0
 25  6  1  0  0  0  0
 26  2  1  0  0  0  0
M  END
>  <CHROM.1>
9.33248043,-9.81275784,-157.96108791,-140.88622439,-177.99095176,-179.45024483
42.88992871,-45.82630446,6.26510856,2.21424983,0.47602454,1.26835011

>  <Name>
design_1

>  <RI>
0

>  <Rbt.Current_Directory>
/home/ziqiaoxu/icml18-jtnn/VAEdesign

>  <Rbt.Executable>
rbdock ($Id: //depot/dev/client3/rdock/2013.1/src/exe/rbdock.cxx#4 $)

>  <Rbt.Library>
libRbt.so (2013.1, Build901 2013/11/27)

>  <Rbt.Parameter_File>
/export/apps/rDock/src/rDock_2013.1_src//data/scripts/dock.prm

>  <Rbt.Receptor>
/home/ziqiaoxu/icml18-jtnn/VAEdesign/targets/RdRp-SARS-CoV-2/pocket_docking.prm

>  <SCORE>
-20.7138

>  <SCORE.INTER>
-17.8366

>  <SCORE.INTER.CONST>
1

>  <SCORE.INTER.POLAR>
-1.01604

>  <SCORE.INTER.REPUL>
0

>  <SCORE.INTER.ROT>
6

>  <SCORE.INTER.VDW>
-25.782

>  <SCORE.INTER.norm>
-0.686022

>  <SCORE.INTRA>
-2.87721

>  <SCORE.INTRA.DIHEDRAL>
-6.35193

>  <SCORE.INTRA.DIHEDRAL.0>
8.91815

>  <SCORE.INTRA.POLAR>
0

>  <SCORE.INTRA.POLAR.0>
0

>  <SCORE.INTRA.REPUL>
0

>  <SCORE.INTRA.REPUL.0>
0

>  <SCORE.INTRA.VDW>
0.298752

>  <SCORE.INTRA.VDW.0>
-1.38794

>  <SCORE.INTRA.norm>
-0.110662

>  <SCORE.RESTR>
0

>  <SCORE.RESTR.CAVITY>
0

>  <SCORE.RESTR.norm>
0

>  <SCORE.SYSTEM>
0

>  <SCORE.SYSTEM.CONST>
0

>  <SCORE.SYSTEM.DIHEDRAL>
0

>  <SCORE.SYSTEM.norm>
0

>  <SCORE.heavy>
26

>  <SCORE.norm>
-0.796684

$$$$
design_5
 OpenBabel05252019093D

 24 25  0  0  0  0  0  0  0  0999 V2000
   40.6603  -43.6374    9.9242 C   0  0  0  0  0  0  0  0  0  0  0  0
   41.7165  -44.6248    9.3662 C   0  0  1  0  0  0  0  0  0  0  0  0
   41.0051  -45.7394    8.7224 C   0  0  0  0  0  0  0  0  0  0  0  0
   41.3198  -46.1910    7.4736 C   0  0  0  0  0  0  0  0  0  0  0  0
   40.6088  -47.2529    6.9412 C   0  0  0  0  0  0  0  0  0  0  0  0
   39.5931  -47.8692    7.6303 C   0  0  0  0  0  0  0  0  0  0  0  0
   38.6916  -49.2169    6.9455 Cl  0  0  0  0  0  0  0  0  0  0  0  0
   39.2572  -47.4285    8.8957 C   0  0  0  0  0  0  0  0  0  0  0  0
   39.9790  -46.3758    9.3960 C   0  0  0  0  0  0  0  0  0  0  0  0
   42.6936  -43.9409    8.6036 N   0  0  0  0  0  0  0  0  0  0  0  0
   42.4302  -43.1591    7.4230 C   0  0  0  0  0  0  0  0  0  0  0  0
   44.0663  -44.0217    9.0371 C   0  0  0  0  0  0  0  0  0  0  0  0
   44.3606  -44.6745   10.0441 O   0  0  0  0  0  0  0  0  0  0  0  0
   45.1362  -43.3181    8.2730 C   0  0  0  0  0  0  0  0  0  0  0  0
   45.7074  -44.1052    7.1669 C   0  0  0  0  0  0  0  0  0  0  0  0
   44.9021  -44.8439    6.1913 C   0  0  0  0  0  0  0  0  0  0  0  0
   45.5268  -45.5187    5.1191 N   0  0  0  0  0  0  0  0  0  0  0  0
   45.5142  -45.2923    3.7563 C   0  0  0  0  0  0  0  0  0  0  0  0
   44.8972  -44.4014    3.1777 O   0  0  0  0  0  0  0  0  0  0  0  0
   46.3043  -46.1778    2.8360 C   0  0  0  0  0  0  0  0  0  0  0  0
   46.4237  -46.0720    1.4792 C   0  0  0  0  0  0  0  0  0  0  0  0
   47.1908  -46.9829    0.8538 C   0  0  0  0  0  0  0  0  0  0  0  0
   47.7869  -47.9383    1.6294 C   0  0  0  0  0  0  0  0  0  0  0  0
   47.2599  -47.5374    3.2014 S   0  0  0  0  0  0  0  0  0  0  0  0
  2  1  1  6  0  0  0
  2  3  1  0  0  0  0
  2 10  1  0  0  0  0
  3  4  2  0  0  0  0
  4  5  1  0  0  0  0
  5  6  2  0  0  0  0
  6  7  1  0  0  0  0
  6  8  1  0  0  0  0
  8  9  2  0  0  0  0
  9  3  1  0  0  0  0
 10 11  1  0  0  0  0
 10 12  1  0  0  0  0
 12 13  2  0  0  0  0
 12 14  1  0  0  0  0
 14 15  1  0  0  0  0
 15 16  1  0  0  0  0
 16 17  1  0  0  0  0
 17 18  1  0  0  0  0
 18 19  2  0  0  0  0
 18 20  1  0  0  0  0
 20 21  2  0  0  0  0
 21 22  1  0  0  0  0
 22 23  2  0  0  0  0
 23 24  1  0  0  0  0
 24 20  1  0  0  0  0
M  END
>  <CHROM.1>
131.44853827,-60.01202840,-87.59287352,46.67215498,176.74508835,-112.23963505
-178.33686905,43.39075303,-45.93218534,6.31927852,-2.59794698,-0.53378597
-2.29528738

>  <Name>
design_5

>  <RI>
0

>  <Rbt.Current_Directory>
/home/ziqiaoxu/icml18-jtnn/VAEdesign

>  <Rbt.Executable>
rbdock ($Id: //depot/dev/client3/rdock/2013.1/src/exe/rbdock.cxx#4 $)

>  <Rbt.Library>
libRbt.so (2013.1, Build901 2013/11/27)

>  <Rbt.Parameter_File>
/export/apps/rDock/src/rDock_2013.1_src//data/scripts/dock.prm

>  <Rbt.Receptor>
/home/ziqiaoxu/icml18-jtnn/VAEdesign/targets/RdRp-SARS-CoV-2/pocket_docking.prm

>  <SCORE>
-14.2777

>  <SCORE.INTER>
-16.4223

>  <SCORE.INTER.CONST>
1

>  <SCORE.INTER.POLAR>
-0.894427

>  <SCORE.INTER.REPUL>
0

>  <SCORE.INTER.ROT>
7

>  <SCORE.INTER.VDW>
-25.7813

>  <SCORE.INTER.norm>
-0.684264

>  <SCORE.INTRA>
2.14461

>  <SCORE.INTRA.DIHEDRAL>
1.29043

>  <SCORE.INTRA.DIHEDRAL.0>
4.32617

>  <SCORE.INTRA.POLAR>
0

>  <SCORE.INTRA.POLAR.0>
0

>  <SCORE.INTRA.REPUL>
0

>  <SCORE.INTRA.REPUL.0>
0

>  <SCORE.INTRA.VDW>
1.4994

>  <SCORE.INTRA.VDW.0>
-0.387836

>  <SCORE.INTRA.norm>
0.0893588

>  <SCORE.RESTR>
0

>  <SCORE.RESTR.CAVITY>
0

>  <SCORE.RESTR.norm>
0

>  <SCORE.SYSTEM>
0

>  <SCORE.SYSTEM.CONST>
0

>  <SCORE.SYSTEM.DIHEDRAL>
0

>  <SCORE.SYSTEM.norm>
0

>  <SCORE.heavy>
24

>  <SCORE.norm>
-0.594905

$$$$
design_2
 OpenBabel05252019093D

 24 26  0  0  0  0  0  0  0  0999 V2000
   39.5509  -49.4185    6.3464 N   0  0  0  0  0  0  0  0  0  0  0  0
   39.7221  -48.4800    7.0198 C   0  0  0  0  0  0  0  0  0  0  0  0
   39.9298  -47.3260    7.8627 C   0  0  0  0  0  0  0  0  0  0  0  0
   38.9949  -46.9465    8.8045 C   0  0  0  0  0  0  0  0  0  0  0  0
   39.1732  -45.8462    9.6213 C   0  0  0  0  0  0  0  0  0  0  0  0
   40.3132  -45.0778    9.5191 C   0  0  0  0  0  0  0  0  0  0  0  0
   40.5844  -43.8892   10.3493 C   0  0  0  0  0  0  0  0  0  0  0  0
   39.5219  -42.8565   10.2660 C   0  0  0  0  0  0  0  0  0  0  0  0
   39.6397  -42.1540    8.9341 C   0  0  0  0  0  0  0  0  0  0  0  0
   39.7053  -42.9025    7.9415 O   0  0  0  0  0  0  0  0  0  0  0  0
   39.6702  -40.7551    8.8598 N   0  0  0  0  0  0  0  0  0  0  0  0
   39.7733  -39.9237    7.7427 C   0  0  0  0  0  0  0  0  0  0  0  0
   39.7089  -40.4846    6.4546 C   0  0  0  0  0  0  0  0  0  0  0  0
   39.8017  -39.7381    5.3099 C   0  0  0  0  0  0  0  0  0  0  0  0
   39.9665  -38.3711    5.3677 C   0  0  0  0  0  0  0  0  0  0  0  0
   40.0590  -37.6290    4.1638 N   0  0  0  0  0  0  0  0  0  0  0  0
   40.1591  -36.2975    4.0744 C   0  0  0  0  0  0  0  0  0  0  0  0
   40.2264  -35.9484    2.7619 N   0  0  0  0  0  0  0  0  0  0  0  0
   40.1659  -37.0847    2.0507 C   0  0  0  0  0  0  0  0  0  0  0  0
   40.0635  -38.0985    2.9415 N   0  0  0  0  0  0  0  0  0  0  0  0
   40.0325  -37.7979    6.5946 C   0  0  0  0  0  0  0  0  0  0  0  0
   39.9383  -38.5548    7.7633 C   0  0  0  0  0  0  0  0  0  0  0  0
   41.2453  -45.4558    8.5804 C   0  0  0  0  0  0  0  0  0  0  0  0
   41.0690  -46.5544    7.7638 C   0  0  0  0  0  0  0  0  0  0  0  0
  1  2  3  0  0  0  0
  2  3  1  0  0  0  0
  3  4  2  0  0  0  0
  4  5  1  0  0  0  0
  5  6  2  0  0  0  0
  6  7  1  0  0  0  0
  6 23  1  0  0  0  0
  7  8  1  0  0  0  0
  8  9  1  0  0  0  0
  9 10  2  0  0  0  0
  9 11  1  0  0  0  0
 11 12  1  0  0  0  0
 12 13  2  0  0  0  0
 13 14  1  0  0  0  0
 14 15  2  0  0  0  0
 15 16  1  0  0  0  0
 15 21  1  0  0  0  0
 16 17  1  0  0  0  0
 17 18  2  0  0  0  0
 18 19  1  0  0  0  0
 19 20  2  0  0  0  0
 20 16  1  0  0  0  0
 21 22  2  0  0  0  0
 22 12  1  0  0  0  0
 23 24  2  0  0  0  0
 24  3  1  0  0  0  0
M  END
>  <CHROM.1>
-56.26078009,-74.44583065,50.35043033,7.32489549,176.82443046,39.95665729
-41.93983478,6.95658103,-2.09347005,1.54333391,0.09554312

>  <Name>
design_2

>  <RI>
0

>  <Rbt.Current_Directory>
/home/ziqiaoxu/icml18-jtnn/VAEdesign

>  <Rbt.Executable>
rbdock ($Id: //depot/dev/client3/rdock/2013.1/src/exe/rbdock.cxx#4 $)

>  <Rbt.Library>
libRbt.so (2013.1, Build901 2013/11/27)

>  <Rbt.Parameter_File>
/export/apps/rDock/src/rDock_2013.1_src//data/scripts/dock.prm

>  <Rbt.Receptor>
/home/ziqiaoxu/icml18-jtnn/VAEdesign/targets/RdRp-SARS-CoV-2/pocket_docking.prm

>  <SCORE>
-23.3358

>  <SCORE.INTER>
-18.3531

>  <SCORE.INTER.CONST>
1

>  <SCORE.INTER.POLAR>
-0.874074

>  <SCORE.INTER.REPUL>
0

>  <SCORE.INTER.ROT>
5

>  <SCORE.INTER.VDW>
-25.7812

>  <SCORE.INTER.norm>
-0.764711

>  <SCORE.INTRA>
-4.9844

>  <SCORE.INTRA.DIHEDRAL>
-7.36217

>  <SCORE.INTRA.DIHEDRAL.0>
11.7272

>  <SCORE.INTRA.POLAR>
0

>  <SCORE.INTRA.POLAR.0>
0

>  <SCORE.INTRA.REPUL>
0

>  <SCORE.INTRA.REPUL.0>
0

>  <SCORE.INTRA.VDW>
-1.30331

>  <SCORE.INTRA.VDW.0>
1.41323

>  <SCORE.INTRA.norm>
-0.207683

>  <SCORE.RESTR>
0.00162594

>  <SCORE.RESTR.CAVITY>
0.00162594

>  <SCORE.RESTR.norm>
6.77475e-05

>  <SCORE.SYSTEM>
0

>  <SCORE.SYSTEM.CONST>
0

>  <SCORE.SYSTEM.DIHEDRAL>
0

>  <SCORE.SYSTEM.norm>
0

>  <SCORE.heavy>
24

>  <SCORE.norm>
-0.972326

$$$$
design_0
 OpenBabel05252019093D

 24 26  0  0  0  0  0  0  0  0999 V2000
   40.7649  -36.2051    3.0591 C   0  0  0  0  0  0  0  0  0  0  0  0
   39.5128  -36.5670    3.6060 O   0  0  0  0  0  0  0  0  0  0  0  0
   39.4924  -37.3006    4.7738 C   0  0  0  0  0  0  0  0  0  0  0  0
   38.9797  -38.5775    4.7499 C   0  0  0  0  0  0  0  0  0  0  0  0
   38.9695  -39.3045    5.9506 C   0  0  0  0  0  0  0  0  0  0  0  0
   39.4477  -38.7931    7.1326 C   0  0  0  0  0  0  0  0  0  0  0  0
   39.5012  -39.4586    8.3638 N   0  0  0  0  0  0  0  0  0  0  0  0
   39.4479  -40.8529    8.4959 C   0  0  0  0  0  0  0  0  0  0  0  0
   39.3639  -41.6057    7.5177 O   0  0  0  0  0  0  0  0  0  0  0  0
   39.4909  -41.4311    9.7858 N   0  0  0  0  0  0  0  0  0  0  0  0
   39.4365  -42.8616    9.9267 C   0  0  0  0  0  0  0  0  0  0  0  0
   40.6771  -43.4168   10.5915 C   0  0  0  0  0  0  0  0  0  0  0  0
   40.5290  -44.9201   10.6778 C   0  0  0  0  0  0  0  0  0  0  0  0
   40.9864  -45.4446    9.3828 N   0  0  0  0  0  0  0  0  0  0  0  0
   42.0884  -45.1560    8.6984 C   0  0  0  0  0  0  0  0  0  0  0  0
   42.0610  -45.8910    7.5734 N   0  0  0  0  0  0  0  0  0  0  0  0
   40.9412  -46.6517    7.5350 C   0  0  0  0  0  0  0  0  0  0  0  0
   40.4315  -47.5568    6.6406 C   0  0  0  0  0  0  0  0  0  0  0  0
   39.2315  -48.1671    6.9209 C   0  0  0  0  0  0  0  0  0  0  0  0
   38.5043  -47.9112    8.0730 C   0  0  0  0  0  0  0  0  0  0  0  0
   39.0554  -46.9929    8.9454 C   0  0  0  0  0  0  0  0  0  0  0  0
   40.2553  -46.3685    8.6873 C   0  0  0  0  0  0  0  0  0  0  0  0
   39.9643  -37.4838    7.1207 C   0  0  0  0  0  0  0  0  0  0  0  0
   39.9760  -36.7688    5.9487 C   0  0  0  0  0  0  0  0  0  0  0  0
  1  2  1  0  0  0  0
  2  3  1  0  0  0  0
  3  4  2  0  0  0  0
  4  5  1  0  0  0  0
  5  6  2  0  0  0  0
  6  7  1  0  0  0  0
  6 23  1  0  0  0  0
  7  8  1  0  0  0  0
  8  9  2  0  0  0  0
  8 10  1  0  0  0  0
 10 11  1  0  0  0  0
 11 12  1  0  0  0  0
 12 13  1  0  0  0  0
 13 14  1  0  0  0  0
 14 15  1  0  0  0  0
 15 16  2  0  0  0  0
 16 17  1  0  0  0  0
 17 18  2  0  0  0  0
 18 19  1  0  0  0  0
 19 20  2  0  0  0  0
 20 21  1  0  0  0  0
 21 22  2  0  0  0  0
 22 14  1  0  0  0  0
 22 17  1  0  0  0  0
 23 24  2  0  0  0  0
 24  3  1  0  0  0  0
M  END
>  <CHROM.1>
-115.40078823,19.76473361,118.91277301,-179.36210256,84.62395654,47.75965456
39.96550335,-42.23457820,7.50348009,-2.93368319,-1.51548592,1.43041934

>  <Name>
design_0

>  <RI>
0

>  <Rbt.Current_Directory>
/home/ziqiaoxu/icml18-jtnn/VAEdesign

>  <Rbt.Executable>
rbdock ($Id: //depot/dev/client3/rdock/2013.1/src/exe/rbdock.cxx#4 $)

>  <Rbt.Library>
libRbt.so (2013.1, Build901 2013/11/27)

>  <Rbt.Parameter_File>
/export/apps/rDock/src/rDock_2013.1_src//data/scripts/dock.prm

>  <Rbt.Receptor>
/home/ziqiaoxu/icml18-jtnn/VAEdesign/targets/RdRp-SARS-CoV-2/pocket_docking.prm

>  <SCORE>
-19.5718

>  <SCORE.INTER>
-20.1192

>  <SCORE.INTER.CONST>
1

>  <SCORE.INTER.POLAR>
-1.68781

>  <SCORE.INTER.REPUL>
0

>  <SCORE.INTER.ROT>
6

>  <SCORE.INTER.VDW>
-25.7806

>  <SCORE.INTER.norm>
-0.838299

>  <SCORE.INTRA>
0.0815241

>  <SCORE.INTRA.DIHEDRAL>
5.54409

>  <SCORE.INTRA.DIHEDRAL.0>
5.56225

>  <SCORE.INTRA.POLAR>
0

>  <SCORE.INTRA.POLAR.0>
0

>  <SCORE.INTRA.REPUL>
0

>  <SCORE.INTRA.REPUL.0>
0

>  <SCORE.INTRA.VDW>
-2.69052

>  <SCORE.INTRA.VDW.0>
2.92561

>  <SCORE.INTRA.norm>
0.00339684

>  <SCORE.RESTR>
0.465889

>  <SCORE.RESTR.CAVITY>
0.465889

>  <SCORE.RESTR.norm>
0.0194121

>  <SCORE.SYSTEM>
0

>  <SCORE.SYSTEM.CONST>
0

>  <SCORE.SYSTEM.DIHEDRAL>
0

>  <SCORE.SYSTEM.norm>
0

>  <SCORE.heavy>
24

>  <SCORE.norm>
-0.81549

$$$$
design_4
 OpenBabel05252019093D

 25 26  0  0  0  0  0  0  0  0999 V2000
   39.4409  -48.9751    6.3174 C   0  0  0  0  0  0  0  0  0  0  0  0
   39.6278  -47.9061    7.3305 C   0  0  0  0  0  0  0  0  0  0  0  0
   40.8239  -47.2362    7.4295 C   0  0  0  0  0  0  0  0  0  0  0  0
   40.9742  -46.2380    8.3878 C   0  0  0  0  0  0  0  0  0  0  0  0
   39.9099  -45.9642    9.1998 C   0  0  0  0  0  0  0  0  0  0  0  0
   40.0424  -44.8896   10.2287 C   0  0  0  0  0  0  0  0  0  0  0  0
   40.8445  -45.1858   11.1314 O   0  0  0  0  0  0  0  0  0  0  0  0
   39.3001  -43.7390   10.0814 N   0  0  0  0  0  0  0  0  0  0  0  0
   39.1124  -42.5251   10.7687 C   0  0  0  0  0  0  0  0  0  0  0  0
   39.8854  -41.3237   10.4755 C   0  0  0  0  0  0  0  0  0  0  0  0
   40.1455  -40.8982    9.1020 C   0  0  0  0  0  0  0  0  0  0  0  0
   40.4958  -41.7238    8.2358 O   0  0  0  0  0  0  0  0  0  0  0  0
   40.0094  -39.5292    8.7043 N   0  0  0  0  0  0  0  0  0  0  0  0
   40.2180  -38.9818    7.4356 C   0  0  0  0  0  0  0  0  0  0  0  0
   40.6887  -39.6410    6.3269 C   0  0  0  0  0  0  0  0  0  0  0  0
   40.8953  -39.0214    5.0898 C   0  0  0  0  0  0  0  0  0  0  0  0
   40.6064  -37.6802    4.9951 C   0  0  0  0  0  0  0  0  0  0  0  0
   40.8232  -36.7868    3.4964 S   0  0  0  0  0  0  0  0  0  0  0  0
   39.3156  -36.1129    2.9854 N   0  0  0  0  0  0  0  0  0  0  0  0
   41.2783  -37.7289    2.4004 O   0  0  0  0  0  0  0  0  0  0  0  0
   41.8548  -35.7139    3.6531 O   0  0  0  0  0  0  0  0  0  0  0  0
   40.1288  -36.9630    6.0775 C   0  0  0  0  0  0  0  0  0  0  0  0
   39.9410  -37.6145    7.2761 C   0  0  0  0  0  0  0  0  0  0  0  0
   38.7070  -46.6130    9.1256 C   0  0  0  0  0  0  0  0  0  0  0  0
   38.5722  -47.6143    8.1567 C   0  0  0  0  0  0  0  0  0  0  0  0
  1  2  1  0  0  0  0
  2  3  2  0  0  0  0
  3  4  1  0  0  0  0
  4  5  2  0  0  0  0
  5  6  1  0  0  0  0
  5 24  1  0  0  0  0
  6  7  2  0  0  0  0
  6  8  1  0  0  0  0
  8  9  1  0  0  0  0
  9 10  1  0  0  0  0
 10 11  1  0  0  0  0
 11 12  2  0  0  0  0
 11 13  1  0  0  0  0
 13 14  1  0  0  0  0
 14 15  2  0  0  0  0
 15 16  1  0  0  0  0
 16 17  2  0  0  0  0
 17 18  1  0  0  0  0
 17 22  1  0  0  0  0
 18 19  1  0  0  0  0
 18 20  2  0  0  0  0
 18 21  2  0  0  0  0
 22 23  2  0  0  0  0
 23 14  1  0  0  0  0
 24 25  2  0  0  0  0
 25  2  1  0  0  0  0
M  END
>  <CHROM.1>
-67.74353590,92.35115958,44.04018037,-44.37855658,-4.84994983,120.33227404
59.91868606,40.18883412,-41.51213897,7.12619202,-2.55779151,1.46745031,0.52883577

>  <Name>
design_4

>  <RI>
0

>  <Rbt.Current_Directory>
/home/ziqiaoxu/icml18-jtnn/VAEdesign

>  <Rbt.Executable>
rbdock ($Id: //depot/dev/client3/rdock/2013.1/src/exe/rbdock.cxx#4 $)

>  <Rbt.Library>
libRbt.so (2013.1, Build901 2013/11/27)

>  <Rbt.Parameter_File>
/export/apps/rDock/src/rDock_2013.1_src//data/scripts/dock.prm

>  <Rbt.Receptor>
/home/ziqiaoxu/icml18-jtnn/VAEdesign/targets/RdRp-SARS-CoV-2/pocket_docking.prm

>  <SCORE>
-19.9833

>  <SCORE.INTER>
-22.9595

>  <SCORE.INTER.CONST>
1

>  <SCORE.INTER.POLAR>
-2.83692

>  <SCORE.INTER.REPUL>
0.0130478

>  <SCORE.INTER.ROT>
7

>  <SCORE.INTER.VDW>
-25.7792

>  <SCORE.INTER.norm>
-0.91838

>  <SCORE.INTRA>
2.49748

>  <SCORE.INTRA.DIHEDRAL>
7.52073

>  <SCORE.INTRA.DIHEDRAL.0>
9.28977

>  <SCORE.INTRA.POLAR>
0

>  <SCORE.INTRA.POLAR.0>
0

>  <SCORE.INTRA.REPUL>
0

>  <SCORE.INTRA.REPUL.0>
0

>  <SCORE.INTRA.VDW>
-1.26288

>  <SCORE.INTRA.VDW.0>
-1.27889

>  <SCORE.INTRA.norm>
0.0998993

>  <SCORE.RESTR>
0.478755

>  <SCORE.RESTR.CAVITY>
0.478755

>  <SCORE.RESTR.norm>
0.0191502

>  <SCORE.SYSTEM>
0

>  <SCORE.SYSTEM.CONST>
0

>  <SCORE.SYSTEM.DIHEDRAL>
0

>  <SCORE.SYSTEM.norm>
0

>  <SCORE.heavy>
25

>  <SCORE.norm>
-0.79933

$$$$
design_13
 OpenBabel05252019093D

 22 23  0  0  0  0  0  0  0  0999 V2000
   37.0524  -46.8620    5.0447 C   0  0  0  0  0  0  0  0  0  0  0  0
   38.1161  -45.9668    5.6290 C   0  0  2  0  0  0  0  0  0  0  0  0
   37.6054  -44.5724    5.8225 C   0  0  0  0  0  0  0  0  0  0  0  0
   38.2463  -43.4314    6.2180 C   0  0  0  0  0  0  0  0  0  0  0  0
   37.5285  -42.3073    6.3087 C   0  0  0  0  0  0  0  0  0  0  0  0
   36.1988  -42.3740    5.9990 C   0  0  0  0  0  0  0  0  0  0  0  0
   35.9863  -44.0131    5.5877 S   0  0  0  0  0  0  0  0  0  0  0  0
   39.3127  -46.0478    4.8534 N   0  0  0  0  0  0  0  0  0  0  0  0
   39.5802  -45.2106    3.6968 C   0  0  0  0  0  0  0  0  0  0  0  0
   40.2981  -47.0115    5.2233 C   0  0  0  0  0  0  0  0  0  0  0  0
   41.3515  -47.0914    4.5505 O   0  0  0  0  0  0  0  0  0  0  0  0
   40.0747  -47.9191    6.4055 C   0  0  0  0  0  0  0  0  0  0  0  0
   40.1664  -47.1076    7.6383 C   0  0  0  0  0  0  0  0  0  0  0  0
   39.1219  -47.1811    8.5564 C   0  0  0  0  0  0  0  0  0  0  0  0
   39.1638  -46.4445    9.7164 C   0  0  0  0  0  0  0  0  0  0  0  0
   40.2417  -45.6265    9.9800 C   0  0  0  0  0  0  0  0  0  0  0  0
   41.2724  -45.5570    9.0694 C   0  0  0  0  0  0  0  0  0  0  0  0
   42.3591  -44.7121    9.3684 O   0  0  0  0  0  0  0  0  0  0  0  0
   43.4057  -44.5264    8.4475 C   0  0  0  0  0  0  0  0  0  0  0  0
   44.4014  -43.6101    8.9419 C   0  0  0  0  0  0  0  0  0  0  0  0
   45.1932  -42.8636    9.3238 N   0  0  0  0  0  0  0  0  0  0  0  0
   41.2301  -46.2841    7.9252 C   0  0  0  0  0  0  0  0  0  0  0  0
  2  1  1  6  0  0  0
  2  3  1  0  0  0  0
  2  8  1  0  0  0  0
  3  4  2  0  0  0  0
  4  5  1  0  0  0  0
  5  6  2  0  0  0  0
  6  7  1  0  0  0  0
  7  3  1  0  0  0  0
  8  9  1  0  0  0  0
  8 10  1  0  0  0  0
 10 11  2  0  0  0  0
 10 12  1  0  0  0  0
 12 13  1  0  0  0  0
 13 14  2  0  0  0  0
 14 15  1  0  0  0  0
 15 16  2  0  0  0  0
 16 17  1  0  0  0  0
 17 18  1  0  0  0  0
 17 22  2  0  0  0  0
 18 19  1  0  0  0  0
 19 20  1  0  0  0  0
 20 21  3  0  0  0  0
 22 13  1  0  0  0  0
M  END
>  <CHROM.1>
-174.21835775,87.89869456,-70.63936905,127.69839272,-175.94236810,179.08225394
39.69714917,-45.24415822,6.89053943,-2.91571983,-0.49292171,0.48484512

>  <Name>
design_13

>  <RI>
0

>  <Rbt.Current_Directory>
/home/ziqiaoxu/icml18-jtnn/VAEdesign

>  <Rbt.Executable>
rbdock ($Id: //depot/dev/client3/rdock/2013.1/src/exe/rbdock.cxx#4 $)

>  <Rbt.Library>
libRbt.so (2013.1, Build901 2013/11/27)

>  <Rbt.Parameter_File>
/export/apps/rDock/src/rDock_2013.1_src//data/scripts/dock.prm

>  <Rbt.Receptor>
/home/ziqiaoxu/icml18-jtnn/VAEdesign/targets/RdRp-SARS-CoV-2/pocket_docking.prm

>  <SCORE>
-16.3124

>  <SCORE.INTER>
-14.9672

>  <SCORE.INTER.CONST>
1

>  <SCORE.INTER.POLAR>
-0.172979

>  <SCORE.INTER.REPUL>
0

>  <SCORE.INTER.ROT>
6

>  <SCORE.INTER.VDW>
-25.7791

>  <SCORE.INTER.norm>
-0.680328

>  <SCORE.INTRA>
-1.3452

>  <SCORE.INTRA.DIHEDRAL>
0.460952

>  <SCORE.INTRA.DIHEDRAL.0>
4.64279

>  <SCORE.INTRA.POLAR>
0

>  <SCORE.INTRA.POLAR.0>
0

>  <SCORE.INTRA.REPUL>
0

>  <SCORE.INTRA.REPUL.0>
0

>  <SCORE.INTRA.VDW>
-1.57568

>  <SCORE.INTRA.VDW.0>
1.83181

>  <SCORE.INTRA.norm>
-0.0611455

>  <SCORE.RESTR>
0

>  <SCORE.RESTR.CAVITY>
0

>  <SCORE.RESTR.norm>
0

>  <SCORE.SYSTEM>
0

>  <SCORE.SYSTEM.CONST>
0

>  <SCORE.SYSTEM.DIHEDRAL>
0

>  <SCORE.SYSTEM.norm>
0

>  <SCORE.heavy>
22

>  <SCORE.norm>
-0.741473

$$$$
design_2
 OpenBabel05252019093D

 22 24  0  0  0  0  0  0  0  0999 V2000
   46.6813  -46.3399    3.4838 C   0  0  0  0  0  0  0  0  0  0  0  0
   46.3939  -45.5536    4.7466 C   0  0  0  0  0  0  0  0  0  0  0  0
   45.3623  -45.6451    5.5539 N   0  0  0  0  0  0  0  0  0  0  0  0
   45.2780  -44.8813    6.6059 C   0  0  0  0  0  0  0  0  0  0  0  0
   44.1192  -44.9627    7.5402 C   0  0  0  0  0  0  0  0  0  0  0  0
   43.0162  -45.7355    7.2691 C   0  0  0  0  0  0  0  0  0  0  0  0
   41.9594  -45.7777    8.1745 C   0  0  0  0  0  0  0  0  0  0  0  0
   41.9835  -45.0629    9.3453 C   0  0  0  0  0  0  0  0  0  0  0  0
   40.8614  -45.1080   10.3065 C   0  0  0  0  0  0  0  0  0  0  0  0
   40.0302  -46.2508    9.9792 N   0  0  0  0  0  0  0  0  0  0  0  0
   38.9661  -46.0652    9.0640 C   0  0  0  0  0  0  0  0  0  0  0  0
   38.7657  -44.9380    8.5630 O   0  0  0  0  0  0  0  0  0  0  0  0
   38.1038  -47.2368    8.7202 C   0  0  0  0  0  0  0  0  0  0  0  0
   38.7519  -47.9821    7.6691 N   0  0  0  0  0  0  0  0  0  0  0  0
   38.6563  -49.3213    7.5056 C   0  0  0  0  0  0  0  0  0  0  0  0
   39.3890  -49.6319    6.4342 N   0  0  0  0  0  0  0  0  0  0  0  0
   39.9195  -48.5454    5.9467 N   0  0  0  0  0  0  0  0  0  0  0  0
   39.5282  -47.5536    6.7003 N   0  0  0  0  0  0  0  0  0  0  0  0
   43.0821  -44.2936    9.6146 C   0  0  0  0  0  0  0  0  0  0  0  0
   44.1470  -44.2490    8.7057 C   0  0  0  0  0  0  0  0  0  0  0  0
   46.3103  -43.9972    6.8112 C   0  0  0  0  0  0  0  0  0  0  0  0
   47.3304  -44.3267    5.4760 S   0  0  0  0  0  0  0  0  0  0  0  0
  1  2  1  0  0  0  0
  2  3  2  0  0  0  0
  3  4  1  0  0  0  0
  4  5  1  0  0  0  0
  4 21  2  0  0  0  0
  5  6  2  0  0  0  0
  6  7  1  0  0  0  0
  7  8  2  0  0  0  0
  8  9  1  0  0  0  0
  8 19  1  0  0  0  0
  9 10  1  0  0  0  0
 10 11  1  0  0  0  0
 11 12  2  0  0  0  0
 11 13  1  0  0  0  0
 13 14  1  0  0  0  0
 14 15  1  0  0  0  0
 15 16  2  0  0  0  0
 16 17  1  0  0  0  0
 17 18  2  0  0  0  0
 18 14  1  0  0  0  0
 19 20  2  0  0  0  0
 20  5  1  0  0  0  0
 21 22  1  0  0  0  0
 22  2  1  0  0  0  0
M  END
>  <CHROM.1>
-7.22915047,15.89371237,-89.89459564,-84.17079482,148.52872655,42.44234691
-45.99745003,7.34358891,0.04761368,-0.44793911,-2.26531193

>  <Name>
design_2

>  <RI>
0

>  <Rbt.Current_Directory>
/home/ziqiaoxu/icml18-jtnn/VAEdesign

>  <Rbt.Executable>
rbdock ($Id: //depot/dev/client3/rdock/2013.1/src/exe/rbdock.cxx#4 $)

>  <Rbt.Library>
libRbt.so (2013.1, Build901 2013/11/27)

>  <Rbt.Parameter_File>
/export/apps/rDock/src/rDock_2013.1_src//data/scripts/dock.prm

>  <Rbt.Receptor>
/home/ziqiaoxu/icml18-jtnn/VAEdesign/targets/RdRp-SARS-CoV-2/pocket_docking.prm

>  <SCORE>
-20.378

>  <SCORE.INTER>
-20.1169

>  <SCORE.INTER.CONST>
1

>  <SCORE.INTER.POLAR>
-1.39409

>  <SCORE.INTER.REPUL>
0

>  <SCORE.INTER.ROT>
5

>  <SCORE.INTER.VDW>
-25.7769

>  <SCORE.INTER.norm>
-0.914403

>  <SCORE.INTRA>
-0.261137

>  <SCORE.INTRA.DIHEDRAL>
0.20245

>  <SCORE.INTRA.DIHEDRAL.0>
5.65602

>  <SCORE.INTRA.POLAR>
0

>  <SCORE.INTRA.POLAR.0>
0

>  <SCORE.INTRA.REPUL>
0

>  <SCORE.INTRA.REPUL.0>
0

>  <SCORE.INTRA.VDW>
-0.362362

>  <SCORE.INTRA.VDW.0>
-0.907362

>  <SCORE.INTRA.norm>
-0.0118699

>  <SCORE.RESTR>
0

>  <SCORE.RESTR.CAVITY>
0

>  <SCORE.RESTR.norm>
0

>  <SCORE.SYSTEM>
0

>  <SCORE.SYSTEM.CONST>
0

>  <SCORE.SYSTEM.DIHEDRAL>
0

>  <SCORE.SYSTEM.norm>
0

>  <SCORE.heavy>
22

>  <SCORE.norm>
-0.926273

$$$$
design_8
 OpenBabel05252019093D

 25 27  0  0  0  0  0  0  0  0999 V2000
   39.3080  -48.3795    8.4229 O   0  0  0  0  0  0  0  0  0  0  0  0
   39.3865  -47.1415    8.3594 C   0  0  0  0  0  0  0  0  0  0  0  0
   39.9064  -46.3153    9.3660 N   0  0  0  0  0  0  0  0  0  0  0  0
   40.4051  -45.5310   10.3341 C   0  0  0  0  0  0  0  0  0  0  0  0
   41.0837  -44.2402    9.7997 C   0  0  0  0  0  0  0  0  0  0  0  0
   42.2965  -44.5539    9.0407 C   0  0  0  0  0  0  0  0  0  0  0  0
   42.1023  -45.2802    7.8048 C   0  0  0  0  0  0  0  0  0  0  0  0
   43.1542  -45.5945    7.0258 C   0  0  0  0  0  0  0  0  0  0  0  0
   44.4287  -45.2533    7.3535 C   0  0  0  0  0  0  0  0  0  0  0  0
   44.6633  -44.5414    8.5626 C   0  0  0  0  0  0  0  0  0  0  0  0
   43.5657  -44.2464    9.3162 C   0  0  0  0  0  0  0  0  0  0  0  0
   38.8740  -46.5518    7.1012 C   0  0  0  0  0  0  0  0  0  0  0  0
   39.3177  -47.0014    5.8936 C   0  0  0  0  0  0  0  0  0  0  0  0
   38.8038  -46.3831    4.7495 C   0  0  0  0  0  0  0  0  0  0  0  0
   37.9046  -45.3775    4.7883 C   0  0  0  0  0  0  0  0  0  0  0  0
   37.4499  -44.9169    6.0286 C   0  0  0  0  0  0  0  0  0  0  0  0
   36.5440  -43.8647    6.1384 N   0  0  0  0  0  0  0  0  0  0  0  0
   36.8711  -42.4898    6.1251 C   0  0  0  0  0  0  0  0  0  0  0  0
   38.1039  -42.1944    6.0099 O   0  0  0  0  0  0  0  0  0  0  0  0
   35.8570  -41.4547    6.2422 C   0  0  0  0  0  0  0  0  0  0  0  0
   34.4972  -41.5188    6.4004 C   0  0  0  0  0  0  0  0  0  0  0  0
   33.9848  -40.2194    6.4795 C   0  0  0  0  0  0  0  0  0  0  0  0
   35.0442  -39.4095    6.3686 N   0  0  0  0  0  0  0  0  0  0  0  0
   36.1579  -40.1438    6.2281 N   0  0  0  0  0  0  0  0  0  0  0  0
   37.9516  -45.5237    7.1682 C   0  0  0  0  0  0  0  0  0  0  0  0
  1  2  2  0  0  0  0
  2  3  1  0  0  0  0
  2 12  1  0  0  0  0
  3  4  1  0  0  0  0
  4  5  1  0  0  0  0
  5  6  1  0  0  0  0
  6  7  2  0  0  0  0
  7  8  1  0  0  0  0
  8  9  2  0  0  0  0
  9 10  1  0  0  0  0
 10 11  2  0  0  0  0
 11  6  1  0  0  0  0
 12 13  2  0  0  0  0
 13 14  1  0  0  0  0
 14 15  2  0  0  0  0
 15 16  1  0  0  0  0
 16 17  1  0  0  0  0
 16 25  2  0  0  0  0
 17 18  1  0  0  0  0
 18 19  2  0  0  0  0
 18 20  1  0  0  0  0
 20 21  1  0  0  0  0
 21 22  2  0  0  0  0
 22 23  1  0  0  0  0
 23 24  1  0  0  0  0
 24 20  2  0  0  0  0
 25 12  1  0  0  0  0
M  END
>  <CHROM.1>
152.27841863,-66.83635393,65.97434284,-52.51311797,-83.94463038,1.22905564
39.07506611,-44.31038589,7.26315642,0.52126872,0.38485647,-3.03247220

>  <Name>
design_8

>  <RI>
0

>  <Rbt.Current_Directory>
/home/ziqiaoxu/icml18-jtnn/VAEdesign

>  <Rbt.Executable>
rbdock ($Id: //depot/dev/client3/rdock/2013.1/src/exe/rbdock.cxx#4 $)

>  <Rbt.Library>
libRbt.so (2013.1, Build901 2013/11/27)

>  <Rbt.Parameter_File>
/export/apps/rDock/src/rDock_2013.1_src//data/scripts/dock.prm

>  <Rbt.Receptor>
/home/ziqiaoxu/icml18-jtnn/VAEdesign/targets/RdRp-SARS-CoV-2/pocket_docking.prm

>  <SCORE>
-14.7215

>  <SCORE.INTER>
-19.2608

>  <SCORE.INTER.CONST>
1

>  <SCORE.INTER.POLAR>
-1.43643

>  <SCORE.INTER.REPUL>
0

>  <SCORE.INTER.ROT>
6

>  <SCORE.INTER.VDW>
-25.7769

>  <SCORE.INTER.norm>
-0.770432

>  <SCORE.INTRA>
4.53928

>  <SCORE.INTRA.DIHEDRAL>
14.0833

>  <SCORE.INTRA.DIHEDRAL.0>
8.55314

>  <SCORE.INTRA.POLAR>
0

>  <SCORE.INTRA.POLAR.0>
0

>  <SCORE.INTRA.REPUL>
0

>  <SCORE.INTRA.REPUL.0>
0

>  <SCORE.INTRA.VDW>
-2.50238

>  <SCORE.INTRA.VDW.0>
-0.568219

>  <SCORE.INTRA.norm>
0.181571

>  <SCORE.RESTR>
0

>  <SCORE.RESTR.CAVITY>
0

>  <SCORE.RESTR.norm>
0

>  <SCORE.SYSTEM>
0

>  <SCORE.SYSTEM.CONST>
0

>  <SCORE.SYSTEM.DIHEDRAL>
0

>  <SCORE.SYSTEM.norm>
0

>  <SCORE.heavy>
25

>  <SCORE.norm>
-0.588861

$$$$
design_0
 OpenBabel05252019093D

 23 25  0  0  0  0  0  0  0  0999 V2000
   44.2163  -46.1544   -0.0645 C   0  0  0  0  0  0  0  0  0  0  0  0
   44.5755  -45.8282    1.2513 O   0  0  0  0  0  0  0  0  0  0  0  0
   45.7477  -46.3811    1.7613 C   0  0  0  0  0  0  0  0  0  0  0  0
   46.5828  -47.1151    1.0191 N   0  0  0  0  0  0  0  0  0  0  0  0
   47.7108  -47.6541    1.4875 C   0  0  0  0  0  0  0  0  0  0  0  0
   48.0551  -47.4581    2.8043 C   0  0  0  0  0  0  0  0  0  0  0  0
   47.2303  -46.7029    3.6372 C   0  0  0  0  0  0  0  0  0  0  0  0
   46.0854  -46.1732    3.1017 C   0  0  0  0  0  0  0  0  0  0  0  0
   45.1024  -45.3822    3.8751 C   0  0  0  0  0  0  0  0  0  0  0  0
   45.2902  -45.5672    5.2808 N   0  0  0  0  0  0  0  0  0  0  0  0
   44.6793  -44.6951    6.2493 C   0  0  0  0  0  0  0  0  0  0  0  0
   43.9453  -43.7316    5.8581 O   0  0  0  0  0  0  0  0  0  0  0  0
   44.8973  -44.9098    7.6785 C   0  0  0  0  0  0  0  0  0  0  0  0
   43.5701  -44.8232    8.4077 C   0  0  0  0  0  0  0  0  0  0  0  0
   43.3579  -43.9145    9.4158 C   0  0  0  0  0  0  0  0  0  0  0  0
   41.7382  -44.2623    9.8488 S   0  0  0  0  0  0  0  0  0  0  0  0
   41.4426  -45.5166    8.7405 C   0  0  0  0  0  0  0  0  0  0  0  0
   40.1900  -46.3120    8.5505 C   0  0  0  0  0  0  0  0  0  0  0  0
   40.1039  -47.3444    7.6887 C   0  0  0  0  0  0  0  0  0  0  0  0
   38.9045  -47.9946    7.6035 C   0  0  0  0  0  0  0  0  0  0  0  0
   37.9286  -47.1594    8.7186 S   0  0  0  0  0  0  0  0  0  0  0  0
   39.0554  -46.0103    9.2659 C   0  0  0  0  0  0  0  0  0  0  0  0
   42.5855  -45.6103    8.0968 N   0  0  0  0  0  0  0  0  0  0  0  0
  1  2  1  0  0  0  0
  2  3  1  0  0  0  0
  3  4  2  0  0  0  0
  4  5  1  0  0  0  0
  5  6  2  0  0  0  0
  6  7  1  0  0  0  0
  7  8  2  0  0  0  0
  8  9  1  0  0  0  0
  8  3  1  0  0  0  0
  9 10  1  0  0  0  0
 10 11  1  0  0  0  0
 11 12  2  0  0  0  0
 11 13  1  0  0  0  0
 13 14  1  0  0  0  0
 14 15  2  0  0  0  0
 15 16  1  0  0  0  0
 16 17  1  0  0  0  0
 17 18  1  0  0  0  0
 17 23  2  0  0  0  0
 18 19  1  0  0  0  0
 19 20  2  0  0  0  0
 20 21  1  0  0  0  0
 21 22  1  0  0  0  0
 22 18  2  0  0  0  0
 23 14  1  0  0  0  0
M  END
>  <CHROM.1>
5.31884087,161.73409454,165.69476341,-133.65645196,-121.82911625,-175.71714486
43.23206657,-45.90201383,5.97838013,0.77196247,-0.37114419,-2.00111701

>  <Name>
design_0

>  <RI>
0

>  <Rbt.Current_Directory>
/home/ziqiaoxu/icml18-jtnn/VAEdesign

>  <Rbt.Executable>
rbdock ($Id: //depot/dev/client3/rdock/2013.1/src/exe/rbdock.cxx#4 $)

>  <Rbt.Library>
libRbt.so (2013.1, Build901 2013/11/27)

>  <Rbt.Parameter_File>
/export/apps/rDock/src/rDock_2013.1_src//data/scripts/dock.prm

>  <Rbt.Receptor>
/home/ziqiaoxu/icml18-jtnn/VAEdesign/targets/RdRp-SARS-CoV-2/pocket_docking.prm

>  <SCORE>
-17.9823

>  <SCORE.INTER>
-17.4146

>  <SCORE.INTER.CONST>
1

>  <SCORE.INTER.POLAR>
-0.894427

>  <SCORE.INTER.REPUL>
0

>  <SCORE.INTER.ROT>
6

>  <SCORE.INTER.VDW>
-25.7736

>  <SCORE.INTER.norm>
-0.757157

>  <SCORE.INTRA>
-0.567739

>  <SCORE.INTRA.DIHEDRAL>
-1.35728

>  <SCORE.INTRA.DIHEDRAL.0>
4.71266

>  <SCORE.INTRA.POLAR>
0

>  <SCORE.INTRA.POLAR.0>
0

>  <SCORE.INTRA.REPUL>
0

>  <SCORE.INTRA.REPUL.0>
0

>  <SCORE.INTRA.VDW>
0.110901

>  <SCORE.INTRA.VDW.0>
-0.681679

>  <SCORE.INTRA.norm>
-0.0246843

>  <SCORE.RESTR>
0

>  <SCORE.RESTR.CAVITY>
0

>  <SCORE.RESTR.norm>
0

>  <SCORE.SYSTEM>
0

>  <SCORE.SYSTEM.CONST>
0

>  <SCORE.SYSTEM.DIHEDRAL>
0

>  <SCORE.SYSTEM.norm>
0

>  <SCORE.heavy>
23

>  <SCORE.norm>
-0.781841

$$$$
design_17
 OpenBabel05252019093D

 24 26  0  0  0  0  0  0  0  0999 V2000
   49.7816  -47.7132    4.0317 C   0  0  0  0  0  0  0  0  0  0  0  0
   48.9156  -46.6757    3.7936 O   0  0  0  0  0  0  0  0  0  0  0  0
   47.6388  -47.1226    3.6144 C   0  0  0  0  0  0  0  0  0  0  0  0
   46.6487  -46.0177    3.3472 C   0  0  0  0  0  0  0  0  0  0  0  0
   46.6099  -45.2460    4.6112 N   0  0  0  0  0  0  0  0  0  0  0  0
   45.6345  -45.4474    5.4776 N   0  0  0  0  0  0  0  0  0  0  0  0
   45.5389  -44.7829    6.6417 C   0  0  0  0  0  0  0  0  0  0  0  0
   44.4707  -45.0107    7.5787 C   0  0  0  0  0  0  0  0  0  0  0  0
   44.7011  -44.7910    8.8011 O   0  0  0  0  0  0  0  0  0  0  0  0
   43.1883  -45.4602    7.2338 N   0  0  0  0  0  0  0  0  0  0  0  0
   42.1237  -45.6857    8.1812 C   0  0  1  0  0  0  0  0  0  0  0  0
   41.5648  -44.4176    8.7288 C   0  0  0  0  0  0  0  0  0  0  0  0
   40.9905  -44.6032   10.1329 C   0  0  0  0  0  0  0  0  0  0  0  0
   40.0020  -46.1482   10.2055 S   0  0  0  0  0  0  0  0  0  0  0  0
   39.9874  -46.7772    8.5195 C   0  0  0  0  0  0  0  0  0  0  0  0
   38.9255  -47.5392    8.0921 C   0  0  0  0  0  0  0  0  0  0  0  0
   38.9336  -48.0145    6.7864 C   0  0  0  0  0  0  0  0  0  0  0  0
   39.9961  -47.7224    5.9347 C   0  0  0  0  0  0  0  0  0  0  0  0
   41.0610  -46.9604    6.3574 C   0  0  0  0  0  0  0  0  0  0  0  0
   41.0290  -46.5019    7.6546 C   0  0  0  0  0  0  0  0  0  0  0  0
   46.5167  -43.8612    6.9082 C   0  0  0  0  0  0  0  0  0  0  0  0
   47.5634  -43.6181    6.0212 C   0  0  0  0  0  0  0  0  0  0  0  0
   47.5801  -44.3457    4.8534 C   0  0  0  0  0  0  0  0  0  0  0  0
   48.4851  -44.2001    3.9843 O   0  0  0  0  0  0  0  0  0  0  0  0
  1  2  1  0  0  0  0
  2  3  1  0  0  0  0
  3  4  1  0  0  0  0
  4  5  1  0  0  0  0
  5  6  1  0  0  0  0
  6  7  2  0  0  0  0
  7  8  1  0  0  0  0
  7 21  1  0  0  0  0
  8  9  2  0  0  0  0
  8 10  1  0  0  0  0
 11 10  1  6  0  0  0
 11 12  1  0  0  0  0
 12 13  1  0  0  0  0
 13 14  1  0  0  0  0
 14 15  1  0  0  0  0
 15 16  2  0  0  0  0
 16 17  1  0  0  0  0
 17 18  2  0  0  0  0
 18 19  1  0  0  0  0
 19 20  2  0  0  0  0
 20 11  1  0  0  0  0
 20 15  1  0  0  0  0
 21 22  2  0  0  0  0
 22 23  1  0  0  0  0
 23 24  2  0  0  0  0
 23  5  1  0  0  0  0
M  END
>  <CHROM.1>
-179.91556605,-66.34275127,-99.13957402,152.32219019,71.88109319,43.98500172
-45.79273420,6.70532198,0.30948898,-0.40140423,-2.28000763

>  <Name>
design_17

>  <RI>
0

>  <Rbt.Current_Directory>
/home/ziqiaoxu/icml18-jtnn/VAEdesign

>  <Rbt.Executable>
rbdock ($Id: //depot/dev/client3/rdock/2013.1/src/exe/rbdock.cxx#4 $)

>  <Rbt.Library>
libRbt.so (2013.1, Build901 2013/11/27)

>  <Rbt.Parameter_File>
/export/apps/rDock/src/rDock_2013.1_src//data/scripts/dock.prm

>  <Rbt.Receptor>
/home/ziqiaoxu/icml18-jtnn/VAEdesign/targets/RdRp-SARS-CoV-2/pocket_docking.prm

>  <SCORE>
-16.249

>  <SCORE.INTER>
-15.3731

>  <SCORE.INTER.CONST>
1

>  <SCORE.INTER.POLAR>
0

>  <SCORE.INTER.REPUL>
0

>  <SCORE.INTER.ROT>
5

>  <SCORE.INTER.VDW>
-25.7731

>  <SCORE.INTER.norm>
-0.640547

>  <SCORE.INTRA>
-0.875875

>  <SCORE.INTRA.DIHEDRAL>
2.90938

>  <SCORE.INTRA.DIHEDRAL.0>
3.60477

>  <SCORE.INTRA.POLAR>
0

>  <SCORE.INTRA.POLAR.0>
0

>  <SCORE.INTRA.REPUL>
0

>  <SCORE.INTRA.REPUL.0>
0

>  <SCORE.INTRA.VDW>
-2.33056

>  <SCORE.INTRA.VDW.0>
2.08978

>  <SCORE.INTRA.norm>
-0.0364948

>  <SCORE.RESTR>
0

>  <SCORE.RESTR.CAVITY>
0

>  <SCORE.RESTR.norm>
0

>  <SCORE.SYSTEM>
0

>  <SCORE.SYSTEM.CONST>
0

>  <SCORE.SYSTEM.DIHEDRAL>
0

>  <SCORE.SYSTEM.norm>
0

>  <SCORE.heavy>
24

>  <SCORE.norm>
-0.677042

$$$$
design_17
 OpenBabel05252019093D

 23 25  0  0  0  0  0  0  0  0999 V2000
   41.5325  -44.3697   11.0408 C   0  0  0  0  0  0  0  0  0  0  0  0
   40.3904  -44.1784   10.1338 N   0  0  0  0  0  0  0  0  0  0  0  0
   39.7881  -42.8835   10.1503 C   0  0  0  0  0  0  0  0  0  0  0  0
   40.2712  -42.0207    9.0484 C   0  0  0  0  0  0  0  0  0  0  0  0
   40.7138  -42.6078    8.0099 O   0  0  0  0  0  0  0  0  0  0  0  0
   40.2624  -40.6117    9.0988 N   0  0  0  0  0  0  0  0  0  0  0  0
   40.7304  -39.7777    8.0264 C   0  0  0  0  0  0  0  0  0  0  0  0
   39.9640  -38.4815    7.9270 C   0  0  0  0  0  0  0  0  0  0  0  0
   40.0313  -38.0125    6.4957 C   0  0  0  0  0  0  0  0  0  0  0  0
   40.1402  -38.7165    5.3906 N   0  0  0  0  0  0  0  0  0  0  0  0
   40.1837  -38.1166    4.2285 C   0  0  0  0  0  0  0  0  0  0  0  0
   40.2986  -38.7520    2.9763 C   0  0  0  0  0  0  0  0  0  0  0  0
   40.3321  -38.0046    1.8471 C   0  0  0  0  0  0  0  0  0  0  0  0
   40.2616  -36.6354    1.8124 C   0  0  0  0  0  0  0  0  0  0  0  0
   40.1492  -36.0012    3.0307 C   0  0  0  0  0  0  0  0  0  0  0  0
   40.1119  -36.7509    4.2215 C   0  0  0  0  0  0  0  0  0  0  0  0
   39.9853  -36.4031    5.8902 S   0  0  0  0  0  0  0  0  0  0  0  0
   40.0079  -45.2820    9.3429 C   0  0  0  0  0  0  0  0  0  0  0  0
   40.9110  -46.0406    8.6337 C   0  0  0  0  0  0  0  0  0  0  0  0
   40.5388  -47.1257    7.8536 C   0  0  0  0  0  0  0  0  0  0  0  0
   39.2028  -47.4505    7.7927 C   0  0  0  0  0  0  0  0  0  0  0  0
   38.2575  -46.7355    8.4742 C   0  0  0  0  0  0  0  0  0  0  0  0
   38.6659  -45.6677    9.2360 C   0  0  0  0  0  0  0  0  0  0  0  0
  1  2  1  0  0  0  0
  2  3  1  0  0  0  0
  2 18  1  0  0  0  0
  3  4  1  0  0  0  0
  4  5  2  0  0  0  0
  4  6  1  0  0  0  0
  6  7  1  0  0  0  0
  7  8  1  0  0  0  0
  8  9  1  0  0  0  0
  9 10  2  0  0  0  0
 10 11  1  0  0  0  0
 11 12  2  0  0  0  0
 12 13  1  0  0  0  0
 13 14  2  0  0  0  0
 14 15  1  0  0  0  0
 15 16  2  0  0  0  0
 16 17  1  0  0  0  0
 16 11  1  0  0  0  0
 17  9  1  0  0  0  0
 18 19  2  0  0  0  0
 19 20  1  0  0  0  0
 20 21  2  0  0  0  0
 21 22  1  0  0  0  0
 22 23  2  0  0  0  0
 23 18  1  0  0  0  0
M  END
>  <CHROM.1>
97.87837714,24.97956344,147.25274424,-153.39084538,29.22796616,-47.04811135
40.12608145,-41.07981943,6.99698700,-1.74810015,-1.45980668,-0.72025029

>  <Name>
design_17

>  <RI>
0

>  <Rbt.Current_Directory>
/home/ziqiaoxu/icml18-jtnn/VAEdesign

>  <Rbt.Executable>
rbdock ($Id: //depot/dev/client3/rdock/2013.1/src/exe/rbdock.cxx#4 $)

>  <Rbt.Library>
libRbt.so (2013.1, Build901 2013/11/27)

>  <Rbt.Parameter_File>
/export/apps/rDock/src/rDock_2013.1_src//data/scripts/dock.prm

>  <Rbt.Receptor>
/home/ziqiaoxu/icml18-jtnn/VAEdesign/targets/RdRp-SARS-CoV-2/pocket_docking.prm

>  <SCORE>
-16.0896

>  <SCORE.INTER>
-17.633

>  <SCORE.INTER.CONST>
1

>  <SCORE.INTER.POLAR>
-0.959166

>  <SCORE.INTER.REPUL>
0

>  <SCORE.INTER.ROT>
6

>  <SCORE.INTER.VDW>
-25.7719

>  <SCORE.INTER.norm>
-0.766654

>  <SCORE.INTRA>
1.5434

>  <SCORE.INTRA.DIHEDRAL>
9.1372

>  <SCORE.INTRA.DIHEDRAL.0>
6.29296

>  <SCORE.INTRA.POLAR>
0

>  <SCORE.INTRA.POLAR.0>
0

>  <SCORE.INTRA.REPUL>
0

>  <SCORE.INTRA.REPUL.0>
0

>  <SCORE.INTRA.VDW>
-3.02519

>  <SCORE.INTRA.VDW.0>
2.56502

>  <SCORE.INTRA.norm>
0.0671045

>  <SCORE.RESTR>
0

>  <SCORE.RESTR.CAVITY>
0

>  <SCORE.RESTR.norm>
0

>  <SCORE.SYSTEM>
0

>  <SCORE.SYSTEM.CONST>
0

>  <SCORE.SYSTEM.DIHEDRAL>
0

>  <SCORE.SYSTEM.norm>
0

>  <SCORE.heavy>
23

>  <SCORE.norm>
-0.699549

$$$$
design_6
 OpenBabel05252019093D

 26 29  0  0  0  0  0  0  0  0999 V2000
   39.0052  -48.8747    6.9442 C   0  0  0  0  0  0  0  0  0  0  0  0
   39.5092  -47.6925    7.6972 C   0  0  0  0  0  0  0  0  0  0  0  0
   39.5217  -47.5829    9.0357 N   0  0  0  0  0  0  0  0  0  0  0  0
   40.0341  -46.3909    9.3837 C   0  0  0  0  0  0  0  0  0  0  0  0
   40.2574  -45.8131   10.6270 C   0  0  0  0  0  0  0  0  0  0  0  0
   40.8123  -44.5502   10.6646 C   0  0  0  0  0  0  0  0  0  0  0  0
   41.1276  -43.9012    9.4891 C   0  0  0  0  0  0  0  0  0  0  0  0
   40.9048  -44.4780    8.2549 C   0  0  0  0  0  0  0  0  0  0  0  0
   40.3454  -45.7515    8.2110 C   0  0  0  0  0  0  0  0  0  0  0  0
   40.0175  -46.5616    7.2034 N   0  0  0  0  0  0  0  0  0  0  0  0
   40.1883  -46.2962    5.7769 C   0  0  0  0  0  0  0  0  0  0  0  0
   41.6422  -46.2994    5.3920 C   0  0  0  0  0  0  0  0  0  0  0  0
   41.8355  -46.2212    3.9598 N   0  0  0  0  0  0  0  0  0  0  0  0
   42.6262  -45.2251    3.3288 C   0  0  0  0  0  0  0  0  0  0  0  0
   43.1765  -44.3690    4.0426 O   0  0  0  0  0  0  0  0  0  0  0  0
   42.7941  -45.1992    1.8631 C   0  0  0  0  0  0  0  0  0  0  0  0
   42.8740  -43.8549    1.2738 C   0  0  0  0  0  0  0  0  0  0  0  0
   41.8266  -42.9701    1.5595 C   0  0  0  0  0  0  0  0  0  0  0  0
   41.8317  -41.6716    1.1115 C   0  0  0  0  0  0  0  0  0  0  0  0
   42.8757  -41.2000    0.3629 C   0  0  0  0  0  0  0  0  0  0  0  0
   43.9158  -42.0478    0.0672 C   0  0  0  0  0  0  0  0  0  0  0  0
   44.9559  -41.5839   -0.6926 C   0  0  0  0  0  0  0  0  0  0  0  0
   46.0077  -42.4082   -1.0210 C   0  0  0  0  0  0  0  0  0  0  0  0
   45.9954  -43.6936   -0.5781 C   0  0  0  0  0  0  0  0  0  0  0  0
   44.9478  -44.1705    0.1905 C   0  0  0  0  0  0  0  0  0  0  0  0
   43.9057  -43.3596    0.5211 C   0  0  0  0  0  0  0  0  0  0  0  0
  1  2  1  0  0  0  0
  2  3  2  0  0  0  0
  3  4  1  0  0  0  0
  4  5  2  0  0  0  0
  5  6  1  0  0  0  0
  6  7  2  0  0  0  0
  7  8  1  0  0  0  0
  8  9  2  0  0  0  0
  9 10  1  0  0  0  0
  9  4  1  0  0  0  0
 10 11  1  0  0  0  0
 10  2  1  0  0  0  0
 11 12  1  0  0  0  0
 12 13  1  0  0  0  0
 13 14  1  0  0  0  0
 14 15  2  0  0  0  0
 14 16  1  0  0  0  0
 16 17  1  0  0  0  0
 17 18  2  0  0  0  0
 18 19  1  0  0  0  0
 19 20  2  0  0  0  0
 20 21  1  0  0  0  0
 21 22  2  0  0  0  0
 22 23  1  0  0  0  0
 23 24  2  0  0  0  0
 24 25  1  0  0  0  0
 25 26  2  0  0  0  0
 26 17  1  0  0  0  0
 26 21  1  0  0  0  0
M  END
>  <CHROM.1>
-109.53089528,172.11362334,124.79205707,144.55489080,-54.58615302,42.01118079
-44.75162191,4.43952147,2.73719538,1.11528828,0.83571727

>  <Name>
design_6

>  <RI>
0

>  <Rbt.Current_Directory>
/home/ziqiaoxu/icml18-jtnn/VAEdesign

>  <Rbt.Executable>
rbdock ($Id: //depot/dev/client3/rdock/2013.1/src/exe/rbdock.cxx#4 $)

>  <Rbt.Library>
libRbt.so (2013.1, Build901 2013/11/27)

>  <Rbt.Parameter_File>
/export/apps/rDock/src/rDock_2013.1_src//data/scripts/dock.prm

>  <Rbt.Receptor>
/home/ziqiaoxu/icml18-jtnn/VAEdesign/targets/RdRp-SARS-CoV-2/pocket_docking.prm

>  <SCORE>
-18.4983

>  <SCORE.INTER>
-19.0702

>  <SCORE.INTER.CONST>
1

>  <SCORE.INTER.POLAR>
-1.08972

>  <SCORE.INTER.REPUL>
0

>  <SCORE.INTER.ROT>
5

>  <SCORE.INTER.VDW>
-25.7651

>  <SCORE.INTER.norm>
-0.733469

>  <SCORE.INTRA>
0.571902

>  <SCORE.INTRA.DIHEDRAL>
0.23982

>  <SCORE.INTRA.DIHEDRAL.0>
5.66471

>  <SCORE.INTRA.POLAR>
0

>  <SCORE.INTRA.POLAR.0>
0

>  <SCORE.INTRA.REPUL>
0

>  <SCORE.INTRA.REPUL.0>
0

>  <SCORE.INTRA.VDW>
0.451992

>  <SCORE.INTRA.VDW.0>
-1.8672

>  <SCORE.INTRA.norm>
0.0219962

>  <SCORE.RESTR>
0

>  <SCORE.RESTR.CAVITY>
0

>  <SCORE.RESTR.norm>
0

>  <SCORE.SYSTEM>
0

>  <SCORE.SYSTEM.CONST>
0

>  <SCORE.SYSTEM.DIHEDRAL>
0

>  <SCORE.SYSTEM.norm>
0

>  <SCORE.heavy>
26

>  <SCORE.norm>
-0.711473

$$$$
design_12
 OpenBabel05252019093D

 23 24  0  0  0  0  0  0  0  0999 V2000
   41.7781  -36.2762    3.2833 C   0  0  0  0  0  0  0  0  0  0  0  0
   40.2699  -36.3105    3.4372 C   0  0  0  0  0  0  0  0  0  0  0  0
   39.6780  -36.3669    2.0227 C   0  0  0  0  0  0  0  0  0  0  0  0
   39.8327  -37.5085    4.2217 C   0  0  0  0  0  0  0  0  0  0  0  0
   39.1662  -38.3459    3.5959 O   0  0  0  0  0  0  0  0  0  0  0  0
   40.1993  -37.5905    5.5669 N   0  0  0  0  0  0  0  0  0  0  0  0
   39.8978  -38.6205    6.4961 C   0  0  0  0  0  0  0  0  0  0  0  0
   39.0713  -39.6900    6.2549 C   0  0  0  0  0  0  0  0  0  0  0  0
   38.8308  -40.6777    7.2211 C   0  0  0  0  0  0  0  0  0  0  0  0
   39.4092  -40.6325    8.4679 C   0  0  0  0  0  0  0  0  0  0  0  0
   39.1499  -41.6836    9.4930 C   0  0  0  0  0  0  0  0  0  0  0  0
   40.1246  -42.7719    9.4549 C   0  0  0  0  0  0  0  0  0  0  0  0
   41.2027  -42.6272    8.8361 O   0  0  0  0  0  0  0  0  0  0  0  0
   39.8587  -43.9895   10.1129 N   0  0  0  0  0  0  0  0  0  0  0  0
   40.8213  -45.0572   10.0708 C   0  0  0  0  0  0  0  0  0  0  0  0
   40.3868  -46.0564    9.0683 C   0  0  0  0  0  0  0  0  0  0  0  0
   41.2023  -46.2412    7.9465 C   0  0  0  0  0  0  0  0  0  0  0  0
   40.8529  -47.1502    6.9728 C   0  0  0  0  0  0  0  0  0  0  0  0
   39.7062  -47.9059    7.0556 C   0  0  0  0  0  0  0  0  0  0  0  0
   38.9190  -47.7071    8.1683 C   0  0  0  0  0  0  0  0  0  0  0  0
   39.2383  -46.8013    9.1686 C   0  0  0  0  0  0  0  0  0  0  0  0
   40.2408  -39.5642    8.7233 C   0  0  0  0  0  0  0  0  0  0  0  0
   40.4758  -38.5972    7.7761 C   0  0  0  0  0  0  0  0  0  0  0  0
  1  2  1  0  0  0  0
  2  3  1  0  0  0  0
  2  4  1  0  0  0  0
  4  5  2  0  0  0  0
  4  6  1  0  0  0  0
  6  7  1  0  0  0  0
  7  8  2  0  0  0  0
  8  9  1  0  0  0  0
  9 10  2  0  0  0  0
 10 11  1  0  0  0  0
 10 22  1  0  0  0  0
 11 12  1  0  0  0  0
 12 13  2  0  0  0  0
 12 14  1  0  0  0  0
 14 15  1  0  0  0  0
 15 16  1  0  0  0  0
 16 17  2  0  0  0  0
 17 18  1  0  0  0  0
 18 19  2  0  0  0  0
 19 20  1  0  0  0  0
 20 21  2  0  0  0  0
 21 16  1  0  0  0  0
 22 23  2  0  0  0  0
 23  7  1  0  0  0  0
M  END
>  <CHROM.1>
-114.02676568,-6.14760448,91.92481209,15.50695901,-101.24480179,115.55417168
40.02643258,-41.57427793,7.05283417,-0.08885391,-1.56473682,-2.12841074

>  <Name>
design_12

>  <RI>
0

>  <Rbt.Current_Directory>
/home/ziqiaoxu/icml18-jtnn/VAEdesign

>  <Rbt.Executable>
rbdock ($Id: //depot/dev/client3/rdock/2013.1/src/exe/rbdock.cxx#4 $)

>  <Rbt.Library>
libRbt.so (2013.1, Build901 2013/11/27)

>  <Rbt.Parameter_File>
/export/apps/rDock/src/rDock_2013.1_src//data/scripts/dock.prm

>  <Rbt.Receptor>
/home/ziqiaoxu/icml18-jtnn/VAEdesign/targets/RdRp-SARS-CoV-2/pocket_docking.prm

>  <SCORE>
-16.2344

>  <SCORE.INTER>
-19.0457

>  <SCORE.INTER.CONST>
1

>  <SCORE.INTER.POLAR>
-1.37669

>  <SCORE.INTER.REPUL>
0

>  <SCORE.INTER.ROT>
6

>  <SCORE.INTER.VDW>
-25.765

>  <SCORE.INTER.norm>
-0.828076

>  <SCORE.INTRA>
2.81138

>  <SCORE.INTRA.DIHEDRAL>
-0.0884469

>  <SCORE.INTRA.DIHEDRAL.0>
4.8404

>  <SCORE.INTRA.POLAR>
0

>  <SCORE.INTRA.POLAR.0>
0

>  <SCORE.INTRA.REPUL>
0

>  <SCORE.INTRA.REPUL.0>
0

>  <SCORE.INTRA.VDW>
2.85561

>  <SCORE.INTRA.VDW.0>
-1.74569

>  <SCORE.INTRA.norm>
0.122234

>  <SCORE.RESTR>
0

>  <SCORE.RESTR.CAVITY>
0

>  <SCORE.RESTR.norm>
0

>  <SCORE.SYSTEM>
0

>  <SCORE.SYSTEM.CONST>
0

>  <SCORE.SYSTEM.DIHEDRAL>
0

>  <SCORE.SYSTEM.norm>
0

>  <SCORE.heavy>
23

>  <SCORE.norm>
-0.705842

$$$$
design_14
 OpenBabel05252019093D

 24 25  0  0  0  0  0  0  0  0999 V2000
   39.3573  -41.8084   11.5391 C   0  0  0  0  0  0  0  0  0  0  0  0
   39.9326  -42.4969   10.4037 N   0  0  0  0  0  0  0  0  0  0  0  0
   40.5046  -43.8192   10.5664 C   0  0  0  0  0  0  0  0  0  0  0  0
   39.7499  -44.7504    9.6387 C   0  0  0  0  0  0  0  0  0  0  0  0
   40.2780  -46.1763    9.7579 C   0  0  0  0  0  0  0  0  0  0  0  0
   39.9849  -46.8608    8.4898 C   0  0  0  0  0  0  0  0  0  0  0  0
   40.8065  -46.6783    7.4166 C   0  0  0  0  0  0  0  0  0  0  0  0
   40.4966  -47.3433    6.2323 C   0  0  0  0  0  0  0  0  0  0  0  0
   39.3997  -48.1610    6.1348 C   0  0  0  0  0  0  0  0  0  0  0  0
   38.5646  -48.3476    7.2227 C   0  0  0  0  0  0  0  0  0  0  0  0
   38.8946  -47.6752    8.3885 C   0  0  0  0  0  0  0  0  0  0  0  0
   39.9225  -41.8524    9.1436 C   0  0  0  0  0  0  0  0  0  0  0  0
   40.4082  -42.4042    8.1255 O   0  0  0  0  0  0  0  0  0  0  0  0
   39.3595  -40.5606    9.0028 N   0  0  0  0  0  0  0  0  0  0  0  0
   39.3441  -39.8836    7.6998 C   0  0  0  0  0  0  0  0  0  0  0  0
   40.7134  -39.3448    7.3687 C   0  0  2  0  0  0  0  0  0  0  0  0
   41.1591  -38.5616    8.4385 O   0  0  0  0  0  0  0  0  0  0  0  0
   40.5763  -38.4887    6.1371 C   0  0  0  0  0  0  0  0  0  0  0  0
   41.0570  -38.9401    4.9218 C   0  0  0  0  0  0  0  0  0  0  0  0
   40.9447  -38.1737    3.8004 C   0  0  0  0  0  0  0  0  0  0  0  0
   40.3553  -36.9307    3.8249 C   0  0  0  0  0  0  0  0  0  0  0  0
   40.2397  -36.1637    2.7169 F   0  0  0  0  0  0  0  0  0  0  0  0
   39.8805  -36.4926    5.0417 C   0  0  0  0  0  0  0  0  0  0  0  0
   39.9857  -37.2560    6.1895 C   0  0  0  0  0  0  0  0  0  0  0  0
  1  2  1  0  0  0  0
  2  3  1  0  0  0  0
  2 12  1  0  0  0  0
  3  4  1  0  0  0  0
  4  5  1  0  0  0  0
  5  6  1  0  0  0  0
  6  7  2  0  0  0  0
  7  8  1  0  0  0  0
  8  9  2  0  0  0  0
  9 10  1  0  0  0  0
 10 11  2  0  0  0  0
 11  6  1  0  0  0  0
 12 13  2  0  0  0  0
 12 14  1  0  0  0  0
 14 15  1  0  0  0  0
 16 15  1  0  0  0  0
 16 17  1  1  0  0  0
 16 18  1  0  0  0  0
 18 19  2  0  0  0  0
 19 20  1  0  0  0  0
 20 21  2  0  0  0  0
 21 22  1  0  0  0  0
 21 23  1  0  0  0  0
 23 24  2  0  0  0  0
 24 18  1  0  0  0  0
M  END
>  <CHROM.1>
121.06342965,-179.31067076,-154.75181192,81.24121473,-76.13976388,-52.79717129
-54.79456072,-107.01713754,40.08326361,-41.92264219,7.43578074,2.90361751
-1.50271386,-2.15729091

>  <Name>
design_14

>  <RI>
0

>  <Rbt.Current_Directory>
/home/ziqiaoxu/icml18-jtnn/VAEdesign

>  <Rbt.Executable>
rbdock ($Id: //depot/dev/client3/rdock/2013.1/src/exe/rbdock.cxx#4 $)

>  <Rbt.Library>
libRbt.so (2013.1, Build901 2013/11/27)

>  <Rbt.Parameter_File>
/export/apps/rDock/src/rDock_2013.1_src//data/scripts/dock.prm

>  <Rbt.Receptor>
/home/ziqiaoxu/icml18-jtnn/VAEdesign/targets/RdRp-SARS-CoV-2/pocket_docking.prm

>  <SCORE>
-20.8332

>  <SCORE.INTER>
-18.49

>  <SCORE.INTER.CONST>
1

>  <SCORE.INTER.POLAR>
-1.50738

>  <SCORE.INTER.REPUL>
0

>  <SCORE.INTER.ROT>
7

>  <SCORE.INTER.VDW>
-25.7649

>  <SCORE.INTER.norm>
-0.770417

>  <SCORE.INTRA>
-2.34317

>  <SCORE.INTRA.DIHEDRAL>
0.404555

>  <SCORE.INTRA.DIHEDRAL.0>
5.85825

>  <SCORE.INTRA.POLAR>
0

>  <SCORE.INTRA.POLAR.0>
0

>  <SCORE.INTRA.REPUL>
0

>  <SCORE.INTRA.REPUL.0>
0

>  <SCORE.INTRA.VDW>
-2.54545

>  <SCORE.INTRA.VDW.0>
2.29897

>  <SCORE.INTRA.norm>
-0.0976322

>  <SCORE.RESTR>
0

>  <SCORE.RESTR.CAVITY>
0

>  <SCORE.RESTR.norm>
0

>  <SCORE.SYSTEM>
0

>  <SCORE.SYSTEM.CONST>
0

>  <SCORE.SYSTEM.DIHEDRAL>
0

>  <SCORE.SYSTEM.norm>
0

>  <SCORE.heavy>
24

>  <SCORE.norm>
-0.868049

$$$$
design_19
 OpenBabel05252019093D

 29 32  0  0  0  0  0  0  0  0999 V2000
   45.1093  -44.9138    7.1711 C   0  0  0  0  0  0  0  0  0  0  0  0
   43.7028  -45.2778    7.4829 C   0  0  0  0  0  0  0  0  0  0  0  0
   43.0117  -44.7435    8.5058 N   0  0  0  0  0  0  0  0  0  0  0  0
   41.7684  -45.2697    8.5332 C   0  0  0  0  0  0  0  0  0  0  0  0
   40.6753  -44.9553    9.5034 C   0  0  0  0  0  0  0  0  0  0  0  0
   41.7324  -46.1419    7.4896 N   0  0  0  0  0  0  0  0  0  0  0  0
   40.5629  -46.8840    7.2136 C   0  0  0  0  0  0  0  0  0  0  0  0
   39.8508  -47.4588    8.2406 C   0  0  0  0  0  0  0  0  0  0  0  0
   38.7121  -48.1816    7.9856 C   0  0  0  0  0  0  0  0  0  0  0  0
   38.3155  -48.3069    6.6766 C   0  0  0  0  0  0  0  0  0  0  0  0
   39.0349  -47.7236    5.6155 C   0  0  0  0  0  0  0  0  0  0  0  0
   40.1683  -47.0059    5.8846 C   0  0  0  0  0  0  0  0  0  0  0  0
   40.9469  -46.3971    4.9024 N   0  0  0  0  0  0  0  0  0  0  0  0
   41.5040  -45.1089    4.8550 C   0  0  0  0  0  0  0  0  0  0  0  0
   41.3484  -44.2926    5.7746 O   0  0  0  0  0  0  0  0  0  0  0  0
   42.3227  -44.6299    3.6956 C   0  0  0  0  0  0  0  0  0  0  0  0
   41.4718  -44.1540    2.5650 C   0  0  0  0  0  0  0  0  0  0  0  0
   42.2870  -43.2691    1.6953 C   0  0  0  0  0  0  0  0  0  0  0  0
   41.8908  -41.9913    1.4140 C   0  0  0  0  0  0  0  0  0  0  0  0
   42.6190  -41.1731    0.6238 N   0  0  0  0  0  0  0  0  0  0  0  0
   43.7902  -41.5820    0.0651 C   0  0  0  0  0  0  0  0  0  0  0  0
   44.4863  -40.7092   -0.7272 C   0  0  0  0  0  0  0  0  0  0  0  0
   45.6760  -41.1062   -1.3016 C   0  0  0  0  0  0  0  0  0  0  0  0
   46.1308  -42.3855   -1.0557 C   0  0  0  0  0  0  0  0  0  0  0  0
   45.4172  -43.2495   -0.2561 C   0  0  0  0  0  0  0  0  0  0  0  0
   44.2198  -42.8589    0.3255 C   0  0  0  0  0  0  0  0  0  0  0  0
   43.4837  -43.6985    1.1295 C   0  0  0  0  0  0  0  0  0  0  0  0
   43.9166  -44.8531    1.3372 O   0  0  0  0  0  0  0  0  0  0  0  0
   42.8983  -46.1490    6.8540 N   0  0  0  0  0  0  0  0  0  0  0  0
  1  2  1  0  0  0  0
  2  3  1  0  0  0  0
  3  4  2  0  0  0  0
  4  5  1  0  0  0  0
  4  6  1  0  0  0  0
  6  7  1  0  0  0  0
  6 29  1  0  0  0  0
  7  8  2  0  0  0  0
  8  9  1  0  0  0  0
  9 10  2  0  0  0  0
 10 11  1  0  0  0  0
 11 12  2  0  0  0  0
 12 13  1  0  0  0  0
 12  7  1  0  0  0  0
 13 14  1  0  0  0  0
 14 15  2  0  0  0  0
 14 16  1  0  0  0  0
 16 17  1  0  0  0  0
 17 18  1  0  0  0  0
 18 19  2  0  0  0  0
 19 20  1  0  0  0  0
 20 21  1  0  0  0  0
 21 22  2  0  0  0  0
 22 23  1  0  0  0  0
 23 24  2  0  0  0  0
 24 25  1  0  0  0  0
 25 26  2  0  0  0  0
 26 27  1  0  0  0  0
 26 21  1  0  0  0  0
 27 28  2  0  0  0  0
 27 18  1  0  0  0  0
 29  2  2  0  0  0  0
M  END
>  <CHROM.1>
-42.75785460,-45.71643449,81.90858594,159.77490416,-123.98597100,42.31532916
-44.63794538,4.25109764,-2.03262852,-0.53122376,-1.29181157

>  <Name>
design_19

>  <RI>
0

>  <Rbt.Current_Directory>
/home/ziqiaoxu/icml18-jtnn/VAEdesign

>  <Rbt.Executable>
rbdock ($Id: //depot/dev/client3/rdock/2013.1/src/exe/rbdock.cxx#4 $)

>  <Rbt.Library>
libRbt.so (2013.1, Build901 2013/11/27)

>  <Rbt.Parameter_File>
/export/apps/rDock/src/rDock_2013.1_src//data/scripts/dock.prm

>  <Rbt.Receptor>
/home/ziqiaoxu/icml18-jtnn/VAEdesign/targets/RdRp-SARS-CoV-2/pocket_docking.prm

>  <SCORE>
-17.6817

>  <SCORE.INTER>
-18.9865

>  <SCORE.INTER.CONST>
1

>  <SCORE.INTER.POLAR>
-1.0658

>  <SCORE.INTER.REPUL>
0

>  <SCORE.INTER.ROT>
5

>  <SCORE.INTER.VDW>
-25.7627

>  <SCORE.INTER.norm>
-0.654706

>  <SCORE.INTRA>
1.30475

>  <SCORE.INTRA.DIHEDRAL>
1.77181

>  <SCORE.INTRA.DIHEDRAL.0>
14.3649

>  <SCORE.INTRA.POLAR>
0

>  <SCORE.INTRA.POLAR.0>
0

>  <SCORE.INTRA.REPUL>
0

>  <SCORE.INTRA.REPUL.0>
0

>  <SCORE.INTRA.VDW>
0.41884

>  <SCORE.INTRA.VDW.0>
-0.682097

>  <SCORE.INTRA.norm>
0.0449913

>  <SCORE.RESTR>
0

>  <SCORE.RESTR.CAVITY>
0

>  <SCORE.RESTR.norm>
0

>  <SCORE.SYSTEM>
0

>  <SCORE.SYSTEM.CONST>
0

>  <SCORE.SYSTEM.DIHEDRAL>
0

>  <SCORE.SYSTEM.norm>
0

>  <SCORE.heavy>
29

>  <SCORE.norm>
-0.609714

$$$$
design_3
 OpenBabel05252019093D

 23 24  0  0  0  0  0  0  0  0999 V2000
   43.5159  -45.8810    0.1838 C   0  0  0  0  0  0  0  0  0  0  0  0
   44.8849  -46.4071    0.4215 C   0  0  0  0  0  0  0  0  0  0  0  0
   45.6642  -46.8706   -0.6196 C   0  0  0  0  0  0  0  0  0  0  0  0
   46.9294  -47.3599   -0.4224 C   0  0  0  0  0  0  0  0  0  0  0  0
   47.4690  -47.4038    0.8427 C   0  0  0  0  0  0  0  0  0  0  0  0
   48.8460  -47.9293    1.1057 C   0  0  0  0  0  0  0  0  0  0  0  0
   46.7154  -46.9487    1.8983 C   0  0  0  0  0  0  0  0  0  0  0  0
   47.3215  -46.9643    3.5606 S   0  0  0  0  0  0  0  0  0  0  0  0
   47.1951  -45.3506    4.3426 C   0  0  0  0  0  0  0  0  0  0  0  0
   45.8751  -45.3385    5.1040 C   0  0  0  0  0  0  0  0  0  0  0  0
   44.8663  -45.6879    4.4496 O   0  0  0  0  0  0  0  0  0  0  0  0
   45.9303  -44.9404    6.4461 N   0  0  0  0  0  0  0  0  0  0  0  0
   44.8117  -44.8619    7.3123 C   0  0  0  0  0  0  0  0  0  0  0  0
   44.9913  -44.2125    8.5515 C   0  0  0  0  0  0  0  0  0  0  0  0
   43.9630  -44.0774    9.4513 C   0  0  0  0  0  0  0  0  0  0  0  0
   42.6986  -44.5630    9.2051 C   0  0  0  0  0  0  0  0  0  0  0  0
   41.5790  -44.4302   10.1552 C   0  0  0  0  0  0  0  0  0  0  0  0
   40.3971  -45.2176    9.7734 C   0  0  0  0  0  0  0  0  0  0  0  0
   39.9096  -46.2087   10.6469 N   0  0  0  0  0  0  0  0  0  0  0  0
   39.8299  -45.0113    8.6863 O   0  0  0  0  0  0  0  0  0  0  0  0
   42.5120  -45.1970    8.0020 C   0  0  0  0  0  0  0  0  0  0  0  0
   43.5563  -45.3436    7.0682 C   0  0  0  0  0  0  0  0  0  0  0  0
   45.4390  -46.4576    1.6818 C   0  0  0  0  0  0  0  0  0  0  0  0
  1  2  1  0  0  0  0
  2  3  2  0  0  0  0
  3  4  1  0  0  0  0
  4  5  2  0  0  0  0
  5  6  1  0  0  0  0
  5  7  1  0  0  0  0
  7  8  1  0  0  0  0
  7 23  2  0  0  0  0
  8  9  1  0  0  0  0
  9 10  1  0  0  0  0
 10 11  2  0  0  0  0
 10 12  1  0  0  0  0
 12 13  1  0  0  0  0
 13 14  2  0  0  0  0
 14 15  1  0  0  0  0
 15 16  2  0  0  0  0
 16 17  1  0  0  0  0
 16 21  1  0  0  0  0
 17 18  1  0  0  0  0
 18 19  1  0  0  0  0
 18 20  2  0  0  0  0
 21 22  2  0  0  0  0
 22 13  1  0  0  0  0
 23  2  1  0  0  0  0
M  END
>  <CHROM.1>
126.76530131,94.21159897,-50.84258325,-168.52857276,-170.33165219,120.39683432
44.66455303,-45.83761141,5.08298138,1.04560384,0.00288998,-1.79963386

>  <Name>
design_3

>  <RI>
0

>  <Rbt.Current_Directory>
/home/ziqiaoxu/icml18-jtnn/VAEdesign

>  <Rbt.Executable>
rbdock ($Id: //depot/dev/client3/rdock/2013.1/src/exe/rbdock.cxx#4 $)

>  <Rbt.Library>
libRbt.so (2013.1, Build901 2013/11/27)

>  <Rbt.Parameter_File>
/export/apps/rDock/src/rDock_2013.1_src//data/scripts/dock.prm

>  <Rbt.Receptor>
/home/ziqiaoxu/icml18-jtnn/VAEdesign/targets/RdRp-SARS-CoV-2/pocket_docking.prm

>  <SCORE>
-20.0267

>  <SCORE.INTER>
-22.1285

>  <SCORE.INTER.CONST>
1

>  <SCORE.INTER.POLAR>
-2.28414

>  <SCORE.INTER.REPUL>
0

>  <SCORE.INTER.ROT>
6

>  <SCORE.INTER.VDW>
-25.7624

>  <SCORE.INTER.norm>
-0.962107

>  <SCORE.INTRA>
2.1018

>  <SCORE.INTRA.DIHEDRAL>
1.55595

>  <SCORE.INTRA.DIHEDRAL.0>
5.76962

>  <SCORE.INTRA.POLAR>
0

>  <SCORE.INTRA.POLAR.0>
0

>  <SCORE.INTRA.REPUL>
0

>  <SCORE.INTRA.REPUL.0>
0

>  <SCORE.INTRA.VDW>
1.32382

>  <SCORE.INTRA.VDW.0>
-1.82608

>  <SCORE.INTRA.norm>
0.0913826

>  <SCORE.RESTR>
0

>  <SCORE.RESTR.CAVITY>
0

>  <SCORE.RESTR.norm>
0

>  <SCORE.SYSTEM>
0

>  <SCORE.SYSTEM.CONST>
0

>  <SCORE.SYSTEM.DIHEDRAL>
0

>  <SCORE.SYSTEM.norm>
0

>  <SCORE.heavy>
23

>  <SCORE.norm>
-0.870724

$$$$
design_8
 OpenBabel05252019093D

 21 22  0  0  0  0  0  0  0  0999 V2000
   46.7737  -46.0486   11.2941 N   0  0  0  0  0  0  0  0  0  0  0  0
   45.8115  -45.2351   11.9425 C   0  0  0  0  0  0  0  0  0  0  0  0
   45.2560  -45.6871   12.9731 O   0  0  0  0  0  0  0  0  0  0  0  0
   45.4310  -43.8955   11.4720 C   0  0  0  0  0  0  0  0  0  0  0  0
   46.1411  -43.4363   10.3204 N   0  0  0  0  0  0  0  0  0  0  0  0
   45.8205  -43.8042    8.9856 C   0  0  0  0  0  0  0  0  0  0  0  0
   46.6616  -43.4824    7.9415 C   0  0  0  0  0  0  0  0  0  0  0  0
   46.3911  -43.8288    6.6367 C   0  0  0  0  0  0  0  0  0  0  0  0
   45.2303  -44.5347    6.3113 C   0  0  0  0  0  0  0  0  0  0  0  0
   44.3780  -44.8671    7.3294 C   0  0  0  0  0  0  0  0  0  0  0  0
   43.1444  -45.6225    7.0249 C   0  0  0  0  0  0  0  0  0  0  0  0
   43.0596  -45.9894    5.8319 O   0  0  0  0  0  0  0  0  0  0  0  0
   42.1955  -45.8754    8.0088 N   0  0  0  0  0  0  0  0  0  0  0  0
   40.9886  -46.5752    7.8660 C   0  0  0  0  0  0  0  0  0  0  0  0
   40.6131  -47.3048    6.7725 C   0  0  0  0  0  0  0  0  0  0  0  0
   39.3853  -47.9659    6.7316 C   0  0  0  0  0  0  0  0  0  0  0  0
   38.5026  -47.9131    7.7842 C   0  0  0  0  0  0  0  0  0  0  0  0
   38.8769  -47.1855    8.8746 C   0  0  0  0  0  0  0  0  0  0  0  0
   40.0739  -46.5300    8.9372 C   0  0  0  0  0  0  0  0  0  0  0  0
   40.4244  -45.6335   10.3991 Cl  0  0  0  0  0  0  0  0  0  0  0  0
   44.6824  -44.4998    8.6453 C   0  0  0  0  0  0  0  0  0  0  0  0
  1  2  1  0  0  0  0
  2  3  2  0  0  0  0
  2  4  1  0  0  0  0
  4  5  1  0  0  0  0
  5  6  1  0  0  0  0
  6  7  2  0  0  0  0
  7  8  1  0  0  0  0
  8  9  2  0  0  0  0
  9 10  1  0  0  0  0
 10 11  1  0  0  0  0
 10 21  2  0  0  0  0
 11 12  2  0  0  0  0
 11 13  1  0  0  0  0
 13 14  1  0  0  0  0
 14 15  2  0  0  0  0
 15 16  1  0  0  0  0
 16 17  2  0  0  0  0
 17 18  1  0  0  0  0
 18 19  2  0  0  0  0
 19 20  1  0  0  0  0
 19 14  1  0  0  0  0
 21  6  1  0  0  0  0
M  END
>  <CHROM.1>
-2.08905527,81.25023070,-170.47227528,5.78179840,10.06842864,43.18495657
-45.52312625,8.85617342,0.26720764,0.39903180,1.60030381

>  <Name>
design_8

>  <RI>
0

>  <Rbt.Current_Directory>
/home/ziqiaoxu/icml18-jtnn/VAEdesign

>  <Rbt.Executable>
rbdock ($Id: //depot/dev/client3/rdock/2013.1/src/exe/rbdock.cxx#4 $)

>  <Rbt.Library>
libRbt.so (2013.1, Build901 2013/11/27)

>  <Rbt.Parameter_File>
/export/apps/rDock/src/rDock_2013.1_src//data/scripts/dock.prm

>  <Rbt.Receptor>
/home/ziqiaoxu/icml18-jtnn/VAEdesign/targets/RdRp-SARS-CoV-2/pocket_docking.prm

>  <SCORE>
-21.8856

>  <SCORE.INTER>
-21.6645

>  <SCORE.INTER.CONST>
1

>  <SCORE.INTER.POLAR>
-1.85359

>  <SCORE.INTER.REPUL>
0

>  <SCORE.INTER.ROT>
5

>  <SCORE.INTER.VDW>
-25.7623

>  <SCORE.INTER.norm>
-1.03164

>  <SCORE.INTRA>
-0.221086

>  <SCORE.INTRA.DIHEDRAL>
-0.949952

>  <SCORE.INTRA.DIHEDRAL.0>
5.53625

>  <SCORE.INTRA.POLAR>
0

>  <SCORE.INTRA.POLAR.0>
0

>  <SCORE.INTRA.REPUL>
0

>  <SCORE.INTRA.REPUL.0>
0

>  <SCORE.INTRA.VDW>
0.25389

>  <SCORE.INTRA.VDW.0>
-0.60479

>  <SCORE.INTRA.norm>
-0.0105279

>  <SCORE.RESTR>
0

>  <SCORE.RESTR.CAVITY>
0

>  <SCORE.RESTR.norm>
0

>  <SCORE.SYSTEM>
0

>  <SCORE.SYSTEM.CONST>
0

>  <SCORE.SYSTEM.DIHEDRAL>
0

>  <SCORE.SYSTEM.norm>
0

>  <SCORE.heavy>
21

>  <SCORE.norm>
-1.04217

$$$$
design_3
 OpenBabel05252019093D

 23 25  0  0  0  0  0  0  0  0999 V2000
   39.1878  -48.5792    6.6772 C   0  0  0  0  0  0  0  0  0  0  0  0
   39.8422  -47.5793    7.5591 C   0  0  0  0  0  0  0  0  0  0  0  0
   39.1650  -47.2358    8.7171 C   0  0  0  0  0  0  0  0  0  0  0  0
   39.7089  -46.3270    9.5669 C   0  0  0  0  0  0  0  0  0  0  0  0
   40.9416  -45.7556    9.2568 C   0  0  0  0  0  0  0  0  0  0  0  0
   41.6109  -46.0949    8.1126 C   0  0  0  0  0  0  0  0  0  0  0  0
   42.9060  -45.4926    7.7907 C   0  0  0  0  0  0  0  0  0  0  0  0
   43.6662  -45.6477    6.7268 N   0  0  0  0  0  0  0  0  0  0  0  0
   44.7922  -45.0259    6.6138 C   0  0  0  0  0  0  0  0  0  0  0  0
   45.7181  -45.1653    5.4104 C   0  0  0  0  0  0  0  0  0  0  0  0
   45.1810  -44.6346    4.2409 N   0  0  0  0  0  0  0  0  0  0  0  0
   45.3826  -43.2959    3.8936 C   0  0  0  0  0  0  0  0  0  0  0  0
   44.1364  -45.3241    3.5781 C   0  0  0  0  0  0  0  0  0  0  0  0
   44.6096  -45.7645    2.2431 C   0  0  0  0  0  0  0  0  0  0  0  0
   45.9005  -46.1379    2.0211 C   0  0  0  0  0  0  0  0  0  0  0  0
   46.3410  -46.5517    0.7724 C   0  0  0  0  0  0  0  0  0  0  0  0
   45.4715  -46.5958   -0.2889 C   0  0  0  0  0  0  0  0  0  0  0  0
   44.1728  -46.2178   -0.0569 C   0  0  0  0  0  0  0  0  0  0  0  0
   43.2552  -46.2335   -1.0514 F   0  0  0  0  0  0  0  0  0  0  0  0
   43.7201  -45.8004    1.1943 C   0  0  0  0  0  0  0  0  0  0  0  0
   45.1603  -44.1968    7.6526 C   0  0  0  0  0  0  0  0  0  0  0  0
   43.8427  -44.3803    8.7194 S   0  0  0  0  0  0  0  0  0  0  0  0
   41.0643  -47.0088    7.2578 C   0  0  0  0  0  0  0  0  0  0  0  0
  1  2  1  0  0  0  0
  2  3  2  0  0  0  0
  3  4  1  0  0  0  0
  4  5  2  0  0  0  0
  5  6  1  0  0  0  0
  6  7  1  0  0  0  0
  6 23  2  0  0  0  0
  7  8  2  0  0  0  0
  8  9  1  0  0  0  0
  9 10  1  0  0  0  0
  9 21  2  0  0  0  0
 10 11  1  0  0  0  0
 11 12  1  0  0  0  0
 11 13  1  0  0  0  0
 13 14  1  0  0  0  0
 14 15  2  0  0  0  0
 15 16  1  0  0  0  0
 16 17  2  0  0  0  0
 17 18  1  0  0  0  0
 18 19  1  0  0  0  0
 18 20  2  0  0  0  0
 20 14  1  0  0  0  0
 21 22  1  0  0  0  0
 22  7  1  0  0  0  0
 23  2  1  0  0  0  0
M  END
>  <CHROM.1>
-176.93313587,67.08067303,89.41873059,-115.77504303,33.83573411,43.33601087
-45.78078708,5.16656773,2.09083497,0.52413906,1.32954732

>  <Name>
design_3

>  <RI>
0

>  <Rbt.Current_Directory>
/home/ziqiaoxu/icml18-jtnn/VAEdesign

>  <Rbt.Executable>
rbdock ($Id: //depot/dev/client3/rdock/2013.1/src/exe/rbdock.cxx#4 $)

>  <Rbt.Library>
libRbt.so (2013.1, Build901 2013/11/27)

>  <Rbt.Parameter_File>
/export/apps/rDock/src/rDock_2013.1_src//data/scripts/dock.prm

>  <Rbt.Receptor>
/home/ziqiaoxu/icml18-jtnn/VAEdesign/targets/RdRp-SARS-CoV-2/pocket_docking.prm

>  <SCORE>
-17.0019

>  <SCORE.INTER>
-15.3594

>  <SCORE.INTER.CONST>
1

>  <SCORE.INTER.POLAR>
0

>  <SCORE.INTER.REPUL>
0

>  <SCORE.INTER.ROT>
5

>  <SCORE.INTER.VDW>
-25.7594

>  <SCORE.INTER.norm>
-0.6678

>  <SCORE.INTRA>
-1.64245

>  <SCORE.INTRA.DIHEDRAL>
-0.0394498

>  <SCORE.INTRA.DIHEDRAL.0>
3.33876

>  <SCORE.INTRA.POLAR>
0

>  <SCORE.INTRA.POLAR.0>
0

>  <SCORE.INTRA.REPUL>
0

>  <SCORE.INTRA.REPUL.0>
0

>  <SCORE.INTRA.VDW>
-1.62273

>  <SCORE.INTRA.VDW.0>
0.266718

>  <SCORE.INTRA.norm>
-0.071411

>  <SCORE.RESTR>
0

>  <SCORE.RESTR.CAVITY>
0

>  <SCORE.RESTR.norm>
0

>  <SCORE.SYSTEM>
0

>  <SCORE.SYSTEM.CONST>
0

>  <SCORE.SYSTEM.DIHEDRAL>
0

>  <SCORE.SYSTEM.norm>
0

>  <SCORE.heavy>
23

>  <SCORE.norm>
-0.739211

$$$$
design_4
 OpenBabel05252019093D

 26 27  0  0  0  0  0  0  0  0999 V2000
   45.9206  -45.9837    3.1106 C   0  0  0  0  0  0  0  0  0  0  0  0
   45.1110  -46.0444    1.8522 C   0  0  0  0  0  0  0  0  0  0  0  0
   45.7000  -46.4025    0.6583 C   0  0  0  0  0  0  0  0  0  0  0  0
   44.9586  -46.4383   -0.5010 C   0  0  0  0  0  0  0  0  0  0  0  0
   43.6186  -46.1067   -0.4273 C   0  0  0  0  0  0  0  0  0  0  0  0
   43.0326  -45.7399    0.8056 C   0  0  0  0  0  0  0  0  0  0  0  0
   43.7693  -45.7069    1.9543 C   0  0  0  0  0  0  0  0  0  0  0  0
   43.2163  -45.3095    3.2547 C   0  0  0  0  0  0  0  0  0  0  0  0
   42.0996  -46.0247    3.7231 N   0  0  0  0  0  0  0  0  0  0  0  0
   41.9464  -46.2988    5.1293 C   0  0  0  0  0  0  0  0  0  0  0  0
   42.7877  -45.8373    5.9093 O   0  0  0  0  0  0  0  0  0  0  0  0
   40.8655  -47.0764    5.5561 N   0  0  0  0  0  0  0  0  0  0  0  0
   40.5684  -47.4236    6.8973 C   0  0  0  0  0  0  0  0  0  0  0  0
   40.4478  -46.2864    7.7937 C   0  0  0  0  0  0  0  0  0  0  0  0
   39.3476  -45.5944    8.1073 C   0  0  0  0  0  0  0  0  0  0  0  0
   39.3019  -44.4794    8.9574 C   0  0  0  0  0  0  0  0  0  0  0  0
   40.4618  -44.0444    9.5263 C   0  0  0  0  0  0  0  0  0  0  0  0
   41.6606  -44.7265    9.2408 C   0  0  0  0  0  0  0  0  0  0  0  0
   42.8095  -44.3520    9.8886 N   0  0  0  0  0  0  0  0  0  0  0  0
   43.9418  -43.9813   10.5253 C   0  0  0  0  0  0  0  0  0  0  0  0
   44.7398  -43.0066   10.1141 O   0  0  0  0  0  0  0  0  0  0  0  0
   44.3613  -44.6266   11.6973 N   0  0  0  0  0  0  0  0  0  0  0  0
   45.5014  -44.4298   12.5301 C   0  0  0  0  0  0  0  0  0  0  0  0
   46.5528  -45.4175   12.0462 C   0  0  0  0  0  0  0  0  0  0  0  0
   45.1454  -44.6522   13.9621 C   0  0  0  0  0  0  0  0  0  0  0  0
   41.6443  -45.8180    8.3942 C   0  0  0  0  0  0  0  0  0  0  0  0
  1  2  1  0  0  0  0
  2  3  2  0  0  0  0
  3  4  1  0  0  0  0
  4  5  2  0  0  0  0
  5  6  1  0  0  0  0
  6  7  2  0  0  0  0
  7  8  1  0  0  0  0
  7  2  1  0  0  0  0
  8  9  1  0  0  0  0
  9 10  1  0  0  0  0
 10 11  2  0  0  0  0
 10 12  1  0  0  0  0
 12 13  1  0  0  0  0
 13 14  1  0  0  0  0
 14 15  2  0  0  0  0
 15 16  1  0  0  0  0
 16 17  2  0  0  0  0
 17 18  1  0  0  0  0
 18 19  1  0  0  0  0
 18 26  2  0  0  0  0
 19 20  1  0  0  0  0
 20 21  2  0  0  0  0
 20 22  1  0  0  0  0
 22 23  1  0  0  0  0
 23 24  1  0  0  0  0
 23 25  1  0  0  0  0
 26 14  1  0  0  0  0
M  END
>  <CHROM.1>
-124.92961621,144.16484422,55.02386583,91.16100426,-83.41796820,-94.43168351
43.09796992,-45.44189978,6.66413696,-1.54949288,0.11416942,1.41155112

>  <Name>
design_4

>  <RI>
0

>  <Rbt.Current_Directory>
/home/ziqiaoxu/icml18-jtnn/VAEdesign

>  <Rbt.Executable>
rbdock ($Id: //depot/dev/client3/rdock/2013.1/src/exe/rbdock.cxx#4 $)

>  <Rbt.Library>
libRbt.so (2013.1, Build901 2013/11/27)

>  <Rbt.Parameter_File>
/export/apps/rDock/src/rDock_2013.1_src//data/scripts/dock.prm

>  <Rbt.Receptor>
/home/ziqiaoxu/icml18-jtnn/VAEdesign/targets/RdRp-SARS-CoV-2/pocket_docking.prm

>  <SCORE>
-19.5359

>  <SCORE.INTER>
-22.0701

>  <SCORE.INTER.CONST>
1

>  <SCORE.INTER.POLAR>
-2.27351

>  <SCORE.INTER.REPUL>
0.00365953

>  <SCORE.INTER.ROT>
6

>  <SCORE.INTER.VDW>
-25.7584

>  <SCORE.INTER.norm>
-0.848848

>  <SCORE.INTRA>
2.53418

>  <SCORE.INTRA.DIHEDRAL>
4.96063

>  <SCORE.INTRA.DIHEDRAL.0>
12.0885

>  <SCORE.INTRA.POLAR>
0

>  <SCORE.INTRA.POLAR.0>
0

>  <SCORE.INTRA.REPUL>
0

>  <SCORE.INTRA.REPUL.0>
0

>  <SCORE.INTRA.VDW>
0.0538613

>  <SCORE.INTRA.VDW.0>
-1.51046

>  <SCORE.INTRA.norm>
0.0974684

>  <SCORE.RESTR>
0

>  <SCORE.RESTR.CAVITY>
0

>  <SCORE.RESTR.norm>
0

>  <SCORE.SYSTEM>
0

>  <SCORE.SYSTEM.CONST>
0

>  <SCORE.SYSTEM.DIHEDRAL>
0

>  <SCORE.SYSTEM.norm>
0

>  <SCORE.heavy>
26

>  <SCORE.norm>
-0.75138

$$$$
design_4
 OpenBabel05252019093D

 26 28  0  0  0  0  0  0  0  0999 V2000
   39.2735  -49.5551    6.5790 C   0  0  0  0  0  0  0  0  0  0  0  0
   39.3461  -48.3053    7.3659 C   0  0  0  0  0  0  0  0  0  0  0  0
   40.4151  -47.4381    7.3087 C   0  0  0  0  0  0  0  0  0  0  0  0
   40.4669  -46.2768    8.0491 C   0  0  0  0  0  0  0  0  0  0  0  0
   39.4322  -45.9452    8.8811 C   0  0  0  0  0  0  0  0  0  0  0  0
   39.3592  -44.7818    9.6654 N   0  0  0  0  0  0  0  0  0  0  0  0
   40.2357  -43.6810    9.6518 C   0  0  0  0  0  0  0  0  0  0  0  0
   41.2093  -43.6586    8.8791 O   0  0  0  0  0  0  0  0  0  0  0  0
   40.0254  -42.5184   10.5559 C   0  0  0  0  0  0  0  0  0  0  0  0
   38.9986  -41.5500   10.0950 C   0  0  0  0  0  0  0  0  0  0  0  0
   39.2391  -40.9616    8.7540 C   0  0  0  0  0  0  0  0  0  0  0  0
   39.1907  -41.7072    7.7783 O   0  0  0  0  0  0  0  0  0  0  0  0
   39.5085  -39.5921    8.6630 N   0  0  0  0  0  0  0  0  0  0  0  0
   39.7437  -38.9194    7.4483 C   0  0  0  0  0  0  0  0  0  0  0  0
   39.8911  -37.5805    7.2991 C   0  0  0  0  0  0  0  0  0  0  0  0
   40.0969  -37.0106    6.0387 C   0  0  0  0  0  0  0  0  0  0  0  0
   40.1608  -37.7718    4.8955 C   0  0  0  0  0  0  0  0  0  0  0  0
   40.3725  -37.1647    3.6159 N   0  0  0  0  0  0  0  0  0  0  0  0
   41.5125  -36.9578    2.9636 C   0  0  0  0  0  0  0  0  0  0  0  0
   41.2072  -36.3426    1.7719 C   0  0  0  0  0  0  0  0  0  0  0  0
   39.8448  -36.1954    1.7477 C   0  0  0  0  0  0  0  0  0  0  0  0
   39.3688  -36.7089    2.8904 N   0  0  0  0  0  0  0  0  0  0  0  0
   40.0133  -39.1359    5.0321 C   0  0  0  0  0  0  0  0  0  0  0  0
   39.8106  -39.6989    6.2687 C   0  0  0  0  0  0  0  0  0  0  0  0
   38.3221  -46.8001    8.9709 C   0  0  0  0  0  0  0  0  0  0  0  0
   38.3205  -47.9416    8.2144 C   0  0  0  0  0  0  0  0  0  0  0  0
  1  2  1  0  0  0  0
  2  3  2  0  0  0  0
  3  4  1  0  0  0  0
  4  5  2  0  0  0  0
  5  6  1  0  0  0  0
  5 25  1  0  0  0  0
  6  7  1  0  0  0  0
  7  8  2  0  0  0  0
  7  9  1  0  0  0  0
  9 10  1  0  0  0  0
 10 11  1  0  0  0  0
 11 12  2  0  0  0  0
 11 13  1  0  0  0  0
 13 14  1  0  0  0  0
 14 15  2  0  0  0  0
 15 16  1  0  0  0  0
 16 17  2  0  0  0  0
 17 18  1  0  0  0  0
 17 23  1  0  0  0  0
 18 19  1  0  0  0  0
 19 20  2  0  0  0  0
 20 21  1  0  0  0  0
 21 22  2  0  0  0  0
 22 18  1  0  0  0  0
 23 24  2  0  0  0  0
 24 14  1  0  0  0  0
 25 26  2  0  0  0  0
 26  2  1  0  0  0  0
M  END
>  <CHROM.1>
7.30517276,-80.05024748,-57.51579534,66.12973368,173.79409090,93.15223209
39.81906475,-41.72520544,6.93550578,-2.45423579,1.47317645,0.44826794

>  <Name>
design_4

>  <RI>
0

>  <Rbt.Current_Directory>
/home/ziqiaoxu/icml18-jtnn/VAEdesign

>  <Rbt.Executable>
rbdock ($Id: //depot/dev/client3/rdock/2013.1/src/exe/rbdock.cxx#4 $)

>  <Rbt.Library>
libRbt.so (2013.1, Build901 2013/11/27)

>  <Rbt.Parameter_File>
/export/apps/rDock/src/rDock_2013.1_src//data/scripts/dock.prm

>  <Rbt.Receptor>
/home/ziqiaoxu/icml18-jtnn/VAEdesign/targets/RdRp-SARS-CoV-2/pocket_docking.prm

>  <SCORE>
-18.1863

>  <SCORE.INTER>
-22.3608

>  <SCORE.INTER.CONST>
1

>  <SCORE.INTER.POLAR>
-2.35389

>  <SCORE.INTER.REPUL>
0

>  <SCORE.INTER.ROT>
6

>  <SCORE.INTER.VDW>
-25.7575

>  <SCORE.INTER.norm>
-0.860029

>  <SCORE.INTRA>
3.68843

>  <SCORE.INTRA.DIHEDRAL>
10.0225

>  <SCORE.INTRA.DIHEDRAL.0>
7.35439

>  <SCORE.INTRA.POLAR>
0

>  <SCORE.INTRA.POLAR.0>
0

>  <SCORE.INTRA.REPUL>
0

>  <SCORE.INTRA.REPUL.0>
0

>  <SCORE.INTRA.VDW>
-1.32282

>  <SCORE.INTRA.VDW.0>
0.69361

>  <SCORE.INTRA.norm>
0.141863

>  <SCORE.RESTR>
0.486025

>  <SCORE.RESTR.CAVITY>
0.486025

>  <SCORE.RESTR.norm>
0.0186933

>  <SCORE.SYSTEM>
0

>  <SCORE.SYSTEM.CONST>
0

>  <SCORE.SYSTEM.DIHEDRAL>
0

>  <SCORE.SYSTEM.norm>
0

>  <SCORE.heavy>
26

>  <SCORE.norm>
-0.699473

$$$$
design_12
 OpenBabel05252019093D

 25 28  0  0  0  0  0  0  0  0999 V2000
   45.2927  -45.2436    5.6636 C   0  0  0  0  0  0  0  0  0  0  0  0
   45.0257  -45.4859    4.2157 C   0  0  0  0  0  0  0  0  0  0  0  0
   45.8753  -45.8900    3.2664 N   0  0  0  0  0  0  0  0  0  0  0  0
   45.2397  -45.9858    2.0871 C   0  0  0  0  0  0  0  0  0  0  0  0
   45.6639  -46.3542    0.8151 C   0  0  0  0  0  0  0  0  0  0  0  0
   44.7703  -46.3592   -0.2346 C   0  0  0  0  0  0  0  0  0  0  0  0
   43.4553  -45.9902    0.0186 C   0  0  0  0  0  0  0  0  0  0  0  0
   43.0017  -45.6193    1.2685 C   0  0  0  0  0  0  0  0  0  0  0  0
   43.9226  -45.6255    2.2957 C   0  0  0  0  0  0  0  0  0  0  0  0
   43.8281  -45.3244    3.6175 N   0  0  0  0  0  0  0  0  0  0  0  0
   42.5681  -44.8975    4.1972 C   0  0  0  0  0  0  0  0  0  0  0  0
   41.6751  -46.0329    4.5377 C   0  0  0  0  0  0  0  0  0  0  0  0
   41.9414  -47.2164    4.1668 O   0  0  0  0  0  0  0  0  0  0  0  0
   40.4743  -45.8783    5.2912 N   0  0  0  0  0  0  0  0  0  0  0  0
   39.5909  -46.9438    5.6363 C   0  0  0  0  0  0  0  0  0  0  0  0
   40.0691  -47.7945    6.7649 C   0  0  0  0  0  0  0  0  0  0  0  0
   40.1117  -46.9902    8.0152 C   0  0  0  0  0  0  0  0  0  0  0  0
   39.2035  -46.9551    9.0477 C   0  0  0  0  0  0  0  0  0  0  0  0
   39.6178  -46.0891    9.9999 N   0  0  0  0  0  0  0  0  0  0  0  0
   40.7854  -45.5583    9.6015 C   0  0  0  0  0  0  0  0  0  0  0  0
   41.6613  -44.6345   10.1491 C   0  0  0  0  0  0  0  0  0  0  0  0
   42.8136  -44.2813    9.4790 C   0  0  0  0  0  0  0  0  0  0  0  0
   43.1158  -44.8364    8.2584 C   0  0  0  0  0  0  0  0  0  0  0  0
   42.2623  -45.7563    7.6933 C   0  0  0  0  0  0  0  0  0  0  0  0
   41.1054  -46.1048    8.3760 C   0  0  0  0  0  0  0  0  0  0  0  0
  1  2  1  0  0  0  0
  2  3  2  0  0  0  0
  3  4  1  0  0  0  0
  4  5  2  0  0  0  0
  5  6  1  0  0  0  0
  6  7  2  0  0  0  0
  7  8  1  0  0  0  0
  8  9  2  0  0  0  0
  9 10  1  0  0  0  0
  9  4  1  0  0  0  0
 10 11  1  0  0  0  0
 10  2  1  0  0  0  0
 11 12  1  0  0  0  0
 12 13  2  0  0  0  0
 12 14  1  0  0  0  0
 14 15  1  0  0  0  0
 15 16  1  0  0  0  0
 16 17  1  0  0  0  0
 17 18  2  0  0  0  0
 18 19  1  0  0  0  0
 19 20  1  0  0  0  0
 20 21  2  0  0  0  0
 21 22  1  0  0  0  0
 22 23  2  0  0  0  0
 23 24  1  0  0  0  0
 24 25  2  0  0  0  0
 25 17  1  0  0  0  0
 25 20  1  0  0  0  0
M  END
>  <CHROM.1>
-97.71838277,-9.45150675,77.27931763,65.46667579,100.26626442,42.49962291
-45.92133330,5.37646718,-1.04752849,0.37826846,1.35989791

>  <Name>
design_12

>  <RI>
0

>  <Rbt.Current_Directory>
/home/ziqiaoxu/icml18-jtnn/VAEdesign

>  <Rbt.Executable>
rbdock ($Id: //depot/dev/client3/rdock/2013.1/src/exe/rbdock.cxx#4 $)

>  <Rbt.Library>
libRbt.so (2013.1, Build901 2013/11/27)

>  <Rbt.Parameter_File>
/export/apps/rDock/src/rDock_2013.1_src//data/scripts/dock.prm

>  <Rbt.Receptor>
/home/ziqiaoxu/icml18-jtnn/VAEdesign/targets/RdRp-SARS-CoV-2/pocket_docking.prm

>  <SCORE>
-20.0441

>  <SCORE.INTER>
-18.8048

>  <SCORE.INTER.CONST>
1

>  <SCORE.INTER.POLAR>
-1.0198

>  <SCORE.INTER.REPUL>
0.00397949

>  <SCORE.INTER.ROT>
5

>  <SCORE.INTER.VDW>
-25.7574

>  <SCORE.INTER.norm>
-0.752193

>  <SCORE.INTRA>
-1.23928

>  <SCORE.INTRA.DIHEDRAL>
0.30899

>  <SCORE.INTRA.DIHEDRAL.0>
5.3933

>  <SCORE.INTRA.POLAR>
0

>  <SCORE.INTRA.POLAR.0>
0

>  <SCORE.INTRA.REPUL>
0

>  <SCORE.INTRA.REPUL.0>
0

>  <SCORE.INTRA.VDW>
-1.39378

>  <SCORE.INTRA.VDW.0>
-1.97309

>  <SCORE.INTRA.norm>
-0.0495713

>  <SCORE.RESTR>
0

>  <SCORE.RESTR.CAVITY>
0

>  <SCORE.RESTR.norm>
0

>  <SCORE.SYSTEM>
0

>  <SCORE.SYSTEM.CONST>
0

>  <SCORE.SYSTEM.DIHEDRAL>
0

>  <SCORE.SYSTEM.norm>
0

>  <SCORE.heavy>
25

>  <SCORE.norm>
-0.801764

$$$$
design_8
 OpenBabel05252019093D

 25 26  0  0  0  0  0  0  0  0999 V2000
   40.1509  -36.4898    3.3496 C   0  0  0  0  0  0  0  0  0  0  0  0
   40.0212  -37.2069    4.6433 C   0  0  0  0  0  0  0  0  0  0  0  0
   40.1247  -36.5599    5.8473 C   0  0  0  0  0  0  0  0  0  0  0  0
   40.0010  -37.2467    7.0630 C   0  0  0  0  0  0  0  0  0  0  0  0
   39.7697  -38.6004    7.1137 C   0  0  0  0  0  0  0  0  0  0  0  0
   39.6204  -39.3554    8.2983 N   0  0  0  0  0  0  0  0  0  0  0  0
   39.5568  -40.7367    8.4632 C   0  0  0  0  0  0  0  0  0  0  0  0
   39.6332  -41.5432    7.5076 O   0  0  0  0  0  0  0  0  0  0  0  0
   39.3982  -41.3482    9.7477 N   0  0  0  0  0  0  0  0  0  0  0  0
   39.3252  -42.7502    9.9784 C   0  0  0  0  0  0  0  0  0  0  0  0
   40.6361  -43.4413   10.2126 C   0  0  0  0  0  0  0  0  0  0  0  0
   40.6295  -44.7639    9.5433 C   0  0  0  0  0  0  0  0  0  0  0  0
   41.5651  -45.1135    8.7891 O   0  0  0  0  0  0  0  0  0  0  0  0
   39.5523  -45.6473    9.7577 N   0  0  0  0  0  0  0  0  0  0  0  0
   39.5557  -46.9502    9.0964 C   0  0  0  0  0  0  0  0  0  0  0  0
   39.3893  -46.6859    7.6428 C   0  0  0  0  0  0  0  0  0  0  0  0
   38.2723  -46.0007    7.1583 C   0  0  0  0  0  0  0  0  0  0  0  0
   38.0880  -45.7476    5.8163 C   0  0  0  0  0  0  0  0  0  0  0  0
   39.0299  -46.1763    4.8882 C   0  0  0  0  0  0  0  0  0  0  0  0
   38.8022  -45.8933    3.5061 C   0  0  0  0  0  0  0  0  0  0  0  0
   38.6336  -45.6722    2.3755 N   0  0  0  0  0  0  0  0  0  0  0  0
   40.1363  -46.8524    5.3486 C   0  0  0  0  0  0  0  0  0  0  0  0
   40.3004  -47.0936    6.6832 C   0  0  0  0  0  0  0  0  0  0  0  0
   39.6680  -39.2384    5.8648 C   0  0  0  0  0  0  0  0  0  0  0  0
   39.7900  -38.5623    4.6763 C   0  0  0  0  0  0  0  0  0  0  0  0
  1  2  1  0  0  0  0
  2  3  2  0  0  0  0
  3  4  1  0  0  0  0
  4  5  2  0  0  0  0
  5  6  1  0  0  0  0
  5 24  1  0  0  0  0
  6  7  1  0  0  0  0
  7  8  2  0  0  0  0
  7  9  1  0  0  0  0
  9 10  1  0  0  0  0
 10 11  1  0  0  0  0
 11 12  1  0  0  0  0
 12 13  2  0  0  0  0
 12 14  1  0  0  0  0
 14 15  1  0  0  0  0
 15 16  1  0  0  0  0
 16 17  2  0  0  0  0
 17 18  1  0  0  0  0
 18 19  2  0  0  0  0
 19 20  1  0  0  0  0
 19 22  1  0  0  0  0
 20 21  3  0  0  0  0
 22 23  2  0  0  0  0
 23 16  1  0  0  0  0
 24 25  2  0  0  0  0
 25  2  1  0  0  0  0
M  END
>  <CHROM.1>
-170.81202588,89.34277697,-141.09830686,129.59603158,-68.02793413,-58.56238716
39.67998718,-42.60874721,7.00371231,1.27073122,-1.42946804,-0.45328953

>  <Name>
design_8

>  <RI>
0

>  <Rbt.Current_Directory>
/home/ziqiaoxu/icml18-jtnn/VAEdesign

>  <Rbt.Executable>
rbdock ($Id: //depot/dev/client3/rdock/2013.1/src/exe/rbdock.cxx#4 $)

>  <Rbt.Library>
libRbt.so (2013.1, Build901 2013/11/27)

>  <Rbt.Parameter_File>
/export/apps/rDock/src/rDock_2013.1_src//data/scripts/dock.prm

>  <Rbt.Receptor>
/home/ziqiaoxu/icml18-jtnn/VAEdesign/targets/RdRp-SARS-CoV-2/pocket_docking.prm

>  <SCORE>
-22.449

>  <SCORE.INTER>
-23.0854

>  <SCORE.INTER.CONST>
1

>  <SCORE.INTER.POLAR>
-2.56728

>  <SCORE.INTER.REPUL>
0

>  <SCORE.INTER.ROT>
6

>  <SCORE.INTER.VDW>
-25.7567

>  <SCORE.INTER.norm>
-0.923416

>  <SCORE.INTRA>
0.0922694

>  <SCORE.INTRA.DIHEDRAL>
4.1351

>  <SCORE.INTRA.DIHEDRAL.0>
4.5444

>  <SCORE.INTRA.POLAR>
0

>  <SCORE.INTRA.POLAR.0>
0

>  <SCORE.INTRA.REPUL>
0

>  <SCORE.INTRA.REPUL.0>
0

>  <SCORE.INTRA.VDW>
-1.97528

>  <SCORE.INTRA.VDW.0>
0.258787

>  <SCORE.INTRA.norm>
0.00369078

>  <SCORE.RESTR>
0.544144

>  <SCORE.RESTR.CAVITY>
0.544144

>  <SCORE.RESTR.norm>
0.0217658

>  <SCORE.SYSTEM>
0

>  <SCORE.SYSTEM.CONST>
0

>  <SCORE.SYSTEM.DIHEDRAL>
0

>  <SCORE.SYSTEM.norm>
0

>  <SCORE.heavy>
25

>  <SCORE.norm>
-0.897959

$$$$
design_10
 OpenBabel05252019093D

 23 25  0  0  0  0  0  0  0  0999 V2000
   39.3829  -48.6621    6.7987 C   0  0  0  0  0  0  0  0  0  0  0  0
   40.0107  -47.5644    7.6058 C   0  0  0  0  0  0  0  0  0  0  0  0
   41.1060  -46.9480    7.3381 N   0  0  0  0  0  0  0  0  0  0  0  0
   41.5601  -46.0057    8.1131 C   0  0  0  0  0  0  0  0  0  0  0  0
   42.8253  -45.2959    7.8009 C   0  0  0  0  0  0  0  0  0  0  0  0
   43.2633  -44.2060    8.5354 C   0  0  0  0  0  0  0  0  0  0  0  0
   44.4275  -43.5464    8.2550 C   0  0  0  0  0  0  0  0  0  0  0  0
   45.2216  -43.9776    7.1846 C   0  0  0  0  0  0  0  0  0  0  0  0
   44.8280  -45.0320    6.4509 C   0  0  0  0  0  0  0  0  0  0  0  0
   45.5901  -45.5367    5.3697 N   0  0  0  0  0  0  0  0  0  0  0  0
   45.9509  -44.8263    4.2323 C   0  0  0  0  0  0  0  0  0  0  0  0
   45.6430  -43.6405    4.0395 O   0  0  0  0  0  0  0  0  0  0  0  0
   46.7612  -45.5306    3.1706 C   0  0  0  0  0  0  0  0  0  0  0  0
   46.0053  -46.6161    2.4641 C   0  0  0  0  0  0  0  0  0  0  0  0
   46.4090  -46.0401    1.2050 N   0  0  0  0  0  0  0  0  0  0  0  0
   45.1491  -45.8218    0.0543 S   0  0  0  0  0  0  0  0  0  0  0  0
   43.6611  -45.2102    0.8042 C   0  0  0  0  0  0  0  0  0  0  0  0
   45.6421  -44.7745   -0.9331 O   0  0  0  0  0  0  0  0  0  0  0  0
   44.8862  -47.0629   -0.7436 O   0  0  0  0  0  0  0  0  0  0  0  0
   46.6960  -44.7758    1.8650 C   0  0  0  0  0  0  0  0  0  0  0  0
   43.6180  -45.6784    6.7806 C   0  0  0  0  0  0  0  0  0  0  0  0
   40.8169  -45.7061    9.2207 C   0  0  0  0  0  0  0  0  0  0  0  0
   39.5000  -46.8118    9.0720 S   0  0  0  0  0  0  0  0  0  0  0  0
  1  2  1  0  0  0  0
  2  3  2  0  0  0  0
  3  4  1  0  0  0  0
  4  5  1  0  0  0  0
  4 22  2  0  0  0  0
  5  6  2  0  0  0  0
  6  7  1  0  0  0  0
  7  8  2  0  0  0  0
  8  9  1  0  0  0  0
  9 10  1  0  0  0  0
  9 21  2  0  0  0  0
 10 11  1  0  0  0  0
 11 12  2  0  0  0  0
 11 13  1  0  0  0  0
 13 14  1  0  0  0  0
 14 15  1  0  0  0  0
 15 16  1  0  0  0  0
 15 20  1  0  0  0  0
 16 17  1  0  0  0  0
 16 18  2  0  0  0  0
 16 19  2  0  0  0  0
 20 13  1  0  0  0  0
 21  5  1  0  0  0  0
 22 23  1  0  0  0  0
 23  2  1  0  0  0  0
M  END
>  <CHROM.1>
173.63551548,-59.77443457,67.75255880,41.48972262,43.74853086,-45.70525068
4.77546982,2.23001446,0.54742552,1.28570247

>  <Name>
design_10

>  <RI>
0

>  <Rbt.Current_Directory>
/home/ziqiaoxu/icml18-jtnn/VAEdesign

>  <Rbt.Executable>
rbdock ($Id: //depot/dev/client3/rdock/2013.1/src/exe/rbdock.cxx#4 $)

>  <Rbt.Library>
libRbt.so (2013.1, Build901 2013/11/27)

>  <Rbt.Parameter_File>
/export/apps/rDock/src/rDock_2013.1_src//data/scripts/dock.prm

>  <Rbt.Receptor>
/home/ziqiaoxu/icml18-jtnn/VAEdesign/targets/RdRp-SARS-CoV-2/pocket_docking.prm

>  <SCORE>
-15.2726

>  <SCORE.INTER>
-18.5928

>  <SCORE.INTER.CONST>
1

>  <SCORE.INTER.POLAR>
-0.657849

>  <SCORE.INTER.REPUL>
0

>  <SCORE.INTER.ROT>
4

>  <SCORE.INTER.VDW>
-25.7562

>  <SCORE.INTER.norm>
-0.808384

>  <SCORE.INTRA>
3.3202

>  <SCORE.INTRA.DIHEDRAL>
7.95282

>  <SCORE.INTRA.DIHEDRAL.0>
2.93202

>  <SCORE.INTRA.POLAR>
0

>  <SCORE.INTRA.POLAR.0>
0

>  <SCORE.INTRA.REPUL>
0

>  <SCORE.INTRA.REPUL.0>
0

>  <SCORE.INTRA.VDW>
-0.656214

>  <SCORE.INTRA.VDW.0>
0.843335

>  <SCORE.INTRA.norm>
0.144356

>  <SCORE.RESTR>
0

>  <SCORE.RESTR.CAVITY>
0

>  <SCORE.RESTR.norm>
0

>  <SCORE.SYSTEM>
0

>  <SCORE.SYSTEM.CONST>
0

>  <SCORE.SYSTEM.DIHEDRAL>
0

>  <SCORE.SYSTEM.norm>
0

>  <SCORE.heavy>
23

>  <SCORE.norm>
-0.664028

$$$$
design_9
 OpenBabel05252019093D

 26 29  0  0  0  0  0  0  0  0999 V2000
   40.0616  -37.2614    2.5883 C   0  0  0  0  0  0  0  0  0  0  0  0
   39.8494  -37.4179    4.0499 C   0  0  0  0  0  0  0  0  0  0  0  0
   39.5223  -36.3910    4.8634 N   0  0  0  0  0  0  0  0  0  0  0  0
   39.4075  -36.8624    6.0900 N   0  0  0  0  0  0  0  0  0  0  0  0
   39.6492  -38.1794    6.1199 C   0  0  0  0  0  0  0  0  0  0  0  0
   39.6401  -39.1153    7.2384 C   0  0  0  0  0  0  0  0  0  0  0  0
   40.4198  -38.9221    8.3595 C   0  0  0  0  0  0  0  0  0  0  0  0
   40.4157  -39.8021    9.4216 C   0  0  0  0  0  0  0  0  0  0  0  0
   39.6064  -40.9452    9.4036 C   0  0  0  0  0  0  0  0  0  0  0  0
   39.6234  -41.8690   10.5656 C   0  0  0  0  0  0  0  0  0  0  0  0
   39.3118  -43.2169   10.1120 N   0  0  0  0  0  0  0  0  0  0  0  0
   40.0460  -43.7890    9.0732 C   0  0  0  0  0  0  0  0  0  0  0  0
   40.9860  -43.0403    8.5834 O   0  0  0  0  0  0  0  0  0  0  0  0
   39.8823  -45.1025    8.4896 C   0  0  0  0  0  0  0  0  0  0  0  0
   38.9912  -46.0591    9.0012 C   0  0  0  0  0  0  0  0  0  0  0  0
   39.1035  -47.1641    8.2267 C   0  0  0  0  0  0  0  0  0  0  0  0
   38.4279  -48.3861    8.3265 C   0  0  0  0  0  0  0  0  0  0  0  0
   38.7542  -49.3365    7.3854 C   0  0  0  0  0  0  0  0  0  0  0  0
   39.6802  -49.1574    6.3818 C   0  0  0  0  0  0  0  0  0  0  0  0
   40.3149  -47.9262    6.3360 C   0  0  0  0  0  0  0  0  0  0  0  0
   40.0249  -46.9314    7.2594 C   0  0  0  0  0  0  0  0  0  0  0  0
   40.4863  -45.6599    7.4448 N   0  0  0  0  0  0  0  0  0  0  0  0
   41.4916  -45.1005    6.5845 C   0  0  0  0  0  0  0  0  0  0  0  0
   38.8362  -41.1206    8.2774 C   0  0  0  0  0  0  0  0  0  0  0  0
   38.8389  -40.2352    7.2059 C   0  0  0  0  0  0  0  0  0  0  0  0
   39.9240  -38.5078    4.8317 N   0  0  0  0  0  0  0  0  0  0  0  0
  1  2  1  0  0  0  0
  2  3  2  0  0  0  0
  3  4  1  0  0  0  0
  4  5  1  0  0  0  0
  5  6  1  0  0  0  0
  5 26  2  0  0  0  0
  6  7  2  0  0  0  0
  7  8  1  0  0  0  0
  8  9  2  0  0  0  0
  9 10  1  0  0  0  0
  9 24  1  0  0  0  0
 10 11  1  0  0  0  0
 11 12  1  0  0  0  0
 12 13  2  0  0  0  0
 12 14  1  0  0  0  0
 14 15  2  0  0  0  0
 15 16  1  0  0  0  0
 16 17  2  0  0  0  0
 17 18  1  0  0  0  0
 18 19  2  0  0  0  0
 19 20  1  0  0  0  0
 20 21  2  0  0  0  0
 21 22  1  0  0  0  0
 21 16  1  0  0  0  0
 22 23  1  0  0  0  0
 22 14  1  0  0  0  0
 24 25  2  0  0  0  0
 25  6  1  0  0  0  0
 26  2  1  0  0  0  0
M  END
>  <CHROM.1>
-56.11115116,-151.29122438,53.52555859,-5.97869895,39.75965877,-42.53700517
7.37531903,-1.24833633,-1.51729896,-3.03353394

>  <Name>
design_9

>  <RI>
0

>  <Rbt.Current_Directory>
/home/ziqiaoxu/icml18-jtnn/VAEdesign

>  <Rbt.Executable>
rbdock ($Id: //depot/dev/client3/rdock/2013.1/src/exe/rbdock.cxx#4 $)

>  <Rbt.Library>
libRbt.so (2013.1, Build901 2013/11/27)

>  <Rbt.Parameter_File>
/export/apps/rDock/src/rDock_2013.1_src//data/scripts/dock.prm

>  <Rbt.Receptor>
/home/ziqiaoxu/icml18-jtnn/VAEdesign/targets/RdRp-SARS-CoV-2/pocket_docking.prm

>  <SCORE>
-18.0741

>  <SCORE.INTER>
-22.7718

>  <SCORE.INTER.CONST>
1

>  <SCORE.INTER.POLAR>
-1.88707

>  <SCORE.INTER.REPUL>
0

>  <SCORE.INTER.ROT>
4

>  <SCORE.INTER.VDW>
-25.7558

>  <SCORE.INTER.norm>
-0.875838

>  <SCORE.INTRA>
4.67939

>  <SCORE.INTRA.DIHEDRAL>
8.79363

>  <SCORE.INTRA.DIHEDRAL.0>
2.07002

>  <SCORE.INTRA.POLAR>
0

>  <SCORE.INTRA.POLAR.0>
0

>  <SCORE.INTRA.REPUL>
0

>  <SCORE.INTRA.REPUL.0>
0

>  <SCORE.INTRA.VDW>
0.282571

>  <SCORE.INTRA.VDW.0>
-1.19996

>  <SCORE.INTRA.norm>
0.179976

>  <SCORE.RESTR>
0.0182884

>  <SCORE.RESTR.CAVITY>
0.0182884

>  <SCORE.RESTR.norm>
0.000703401

>  <SCORE.SYSTEM>
0

>  <SCORE.SYSTEM.CONST>
0

>  <SCORE.SYSTEM.DIHEDRAL>
0

>  <SCORE.SYSTEM.norm>
0

>  <SCORE.heavy>
26

>  <SCORE.norm>
-0.695158

$$$$
design_15
 OpenBabel05252019093D

 23 25  0  0  0  0  0  0  0  0999 V2000
   39.0603  -49.0898    6.5613 C   0  0  0  0  0  0  0  0  0  0  0  0
   39.3882  -47.9699    7.5362 C   0  0  0  0  0  0  0  0  0  0  0  0
   38.4845  -47.5738    8.4936 C   0  0  0  0  0  0  0  0  0  0  0  0
   39.3481  -46.3308    9.2848 S   0  0  0  0  0  0  0  0  0  0  0  0
   40.7870  -46.4009    8.3504 C   0  0  0  0  0  0  0  0  0  0  0  0
   42.0140  -45.5759    8.4954 C   0  0  0  0  0  0  0  0  0  0  0  0
   42.0730  -44.6543    9.5129 C   0  0  0  0  0  0  0  0  0  0  0  0
   43.2004  -43.8904    9.6419 C   0  0  0  0  0  0  0  0  0  0  0  0
   44.2715  -44.0382    8.7630 C   0  0  0  0  0  0  0  0  0  0  0  0
   44.2287  -44.9481    7.7475 C   0  0  0  0  0  0  0  0  0  0  0  0
   45.2600  -45.1372    6.8242 N   0  0  0  0  0  0  0  0  0  0  0  0
   46.2081  -44.2385    6.3412 C   0  0  0  0  0  0  0  0  0  0  0  0
   46.2448  -43.0542    6.7118 O   0  0  0  0  0  0  0  0  0  0  0  0
   47.2535  -44.6316    5.3401 C   0  0  0  0  0  0  0  0  0  0  0  0
   46.6634  -45.3467    4.1866 C   0  0  0  0  0  0  0  0  0  0  0  0
   45.4904  -44.9246    3.6044 C   0  0  0  0  0  0  0  0  0  0  0  0
   44.9437  -45.5950    2.5276 C   0  0  0  0  0  0  0  0  0  0  0  0
   45.5539  -46.6975    2.0105 C   0  0  0  0  0  0  0  0  0  0  0  0
   46.7301  -47.1463    2.5706 C   0  0  0  0  0  0  0  0  0  0  0  0
   47.3528  -48.2685    2.0457 O   0  0  0  0  0  0  0  0  0  0  0  0
   47.2727  -46.4634    3.6553 C   0  0  0  0  0  0  0  0  0  0  0  0
   43.0548  -45.7213    7.6392 C   0  0  0  0  0  0  0  0  0  0  0  0
   40.5273  -47.3584    7.4980 N   0  0  0  0  0  0  0  0  0  0  0  0
  1  2  1  0  0  0  0
  2  3  2  0  0  0  0
  3  4  1  0  0  0  0
  4  5  1  0  0  0  0
  5  6  1  0  0  0  0
  5 23  2  0  0  0  0
  6  7  2  0  0  0  0
  7  8  1  0  0  0  0
  8  9  2  0  0  0  0
  9 10  1  0  0  0  0
 10 11  1  0  0  0  0
 10 22  2  0  0  0  0
 11 12  1  0  0  0  0
 12 13  2  0  0  0  0
 12 14  1  0  0  0  0
 14 15  1  0  0  0  0
 15 16  2  0  0  0  0
 16 17  1  0  0  0  0
 17 18  2  0  0  0  0
 18 19  1  0  0  0  0
 19 20  1  0  0  0  0
 19 21  2  0  0  0  0
 21 15  1  0  0  0  0
 22  6  1  0  0  0  0
 23  2  1  0  0  0  0
M  END
>  <CHROM.1>
2.16232918,-29.13137877,49.33766331,42.50488003,-5.59658571,43.50614079,-45.92187454
6.44293513,2.69886835,0.49622006,0.92525099

>  <Name>
design_15

>  <RI>
0

>  <Rbt.Current_Directory>
/home/ziqiaoxu/icml18-jtnn/VAEdesign

>  <Rbt.Executable>
rbdock ($Id: //depot/dev/client3/rdock/2013.1/src/exe/rbdock.cxx#4 $)

>  <Rbt.Library>
libRbt.so (2013.1, Build901 2013/11/27)

>  <Rbt.Parameter_File>
/export/apps/rDock/src/rDock_2013.1_src//data/scripts/dock.prm

>  <Rbt.Receptor>
/home/ziqiaoxu/icml18-jtnn/VAEdesign/targets/RdRp-SARS-CoV-2/pocket_docking.prm

>  <SCORE>
-19.6277

>  <SCORE.INTER>
-20.2989

>  <SCORE.INTER.CONST>
1

>  <SCORE.INTER.POLAR>
-1.16709

>  <SCORE.INTER.REPUL>
0.00471238

>  <SCORE.INTER.ROT>
4

>  <SCORE.INTER.VDW>
-25.7543

>  <SCORE.INTER.norm>
-0.882559

>  <SCORE.INTRA>
0.671134

>  <SCORE.INTRA.DIHEDRAL>
2.95189

>  <SCORE.INTRA.DIHEDRAL.0>
2.28273

>  <SCORE.INTRA.POLAR>
0

>  <SCORE.INTRA.POLAR.0>
0

>  <SCORE.INTRA.REPUL>
0

>  <SCORE.INTRA.REPUL.0>
0

>  <SCORE.INTRA.VDW>
-0.804812

>  <SCORE.INTRA.VDW.0>
-0.952936

>  <SCORE.INTRA.norm>
0.0291797

>  <SCORE.RESTR>
0

>  <SCORE.RESTR.CAVITY>
0

>  <SCORE.RESTR.norm>
0

>  <SCORE.SYSTEM>
0

>  <SCORE.SYSTEM.CONST>
0

>  <SCORE.SYSTEM.DIHEDRAL>
0

>  <SCORE.SYSTEM.norm>
0

>  <SCORE.heavy>
23

>  <SCORE.norm>
-0.853379

$$$$
design_10
 OpenBabel05252019093D

 26 29  0  0  0  0  0  0  0  0999 V2000
   40.5904  -41.7551    8.3895 C   0  0  0  0  0  0  0  0  0  0  0  0
   40.6601  -40.4243    7.7615 C   0  0  0  0  0  0  0  0  0  0  0  0
   40.9885  -39.2871    8.3628 N   0  0  0  0  0  0  0  0  0  0  0  0
   40.9255  -38.3175    7.4769 N   0  0  0  0  0  0  0  0  0  0  0  0
   40.5487  -38.8430    6.2723 C   0  0  0  0  0  0  0  0  0  0  0  0
   40.3276  -37.9958    5.0899 C   0  0  0  0  0  0  0  0  0  0  0  0
   40.1669  -36.6486    5.2635 C   0  0  0  0  0  0  0  0  0  0  0  0
   40.0198  -35.8136    4.1652 C   0  0  0  0  0  0  0  0  0  0  0  0
   40.0385  -36.3633    2.8941 C   0  0  0  0  0  0  0  0  0  0  0  0
   40.1970  -37.6908    2.7055 C   0  0  0  0  0  0  0  0  0  0  0  0
   40.3858  -38.2995    1.3678 C   0  0  0  0  0  0  0  0  0  0  0  0
   40.9713  -39.6011    1.3819 N   0  0  0  0  0  0  0  0  0  0  0  0
   42.1898  -39.8762    0.7644 C   0  0  0  0  0  0  0  0  0  0  0  0
   42.8181  -38.9298    0.1742 O   0  0  0  0  0  0  0  0  0  0  0  0
   42.7623  -41.2291    0.7530 C   0  0  0  0  0  0  0  0  0  0  0  0
   42.2929  -42.3827    1.2969 C   0  0  0  0  0  0  0  0  0  0  0  0
   43.0157  -43.4925    1.1119 C   0  0  0  0  0  0  0  0  0  0  0  0
   44.1741  -43.3839    0.3879 C   0  0  0  0  0  0  0  0  0  0  0  0
   45.1453  -44.4706   -0.0195 C   0  0  2  0  0  0  0  0  0  0  0  0
   44.4372  -45.7174   -0.5054 C   0  0  0  0  0  0  0  0  0  0  0  0
   45.5748  -46.7343   -0.3334 C   0  0  0  0  0  0  0  0  0  0  0  0
   46.3757  -46.1118    0.7857 C   0  0  0  0  0  0  0  0  0  0  0  0
   45.7520  -44.9407    1.1465 O   0  0  0  0  0  0  0  0  0  0  0  0
   44.2175  -41.7196   -0.0091 S   0  0  0  0  0  0  0  0  0  0  0  0
   40.3387  -38.5065    3.8248 C   0  0  0  0  0  0  0  0  0  0  0  0
   40.3940  -40.1380    6.4774 N   0  0  0  0  0  0  0  0  0  0  0  0
  1  2  1  0  0  0  0
  2  3  2  0  0  0  0
  3  4  1  0  0  0  0
  4  5  1  0  0  0  0
  5  6  1  0  0  0  0
  5 26  2  0  0  0  0
  6  7  2  0  0  0  0
  7  8  1  0  0  0  0
  8  9  2  0  0  0  0
  9 10  1  0  0  0  0
 10 11  1  0  0  0  0
 10 25  2  0  0  0  0
 11 12  1  0  0  0  0
 12 13  1  0  0  0  0
 13 14  2  0  0  0  0
 13 15  1  0  0  0  0
 15 16  2  0  0  0  0
 16 17  1  0  0  0  0
 17 18  2  0  0  0  0
 18 24  1  0  0  0  0
 19 18  1  1  0  0  0
 19 20  1  0  0  0  0
 20 21  1  0  0  0  0
 21 22  1  0  0  0  0
 22 23  1  0  0  0  0
 23 19  1  0  0  0  0
 24 15  1  0  0  0  0
 25  6  1  0  0  0  0
 26  2  1  0  0  0  0
M  END
>  <CHROM.1>
-16.48732517,159.96677673,-118.74233023,-0.89676147,42.88099879,42.27412601
-40.82375079,2.80470018,-2.88488044,1.05970639,-1.13419047

>  <Name>
design_10

>  <RI>
0

>  <Rbt.Current_Directory>
/home/ziqiaoxu/icml18-jtnn/VAEdesign

>  <Rbt.Executable>
rbdock ($Id: //depot/dev/client3/rdock/2013.1/src/exe/rbdock.cxx#4 $)

>  <Rbt.Library>
libRbt.so (2013.1, Build901 2013/11/27)

>  <Rbt.Parameter_File>
/export/apps/rDock/src/rDock_2013.1_src//data/scripts/dock.prm

>  <Rbt.Receptor>
/home/ziqiaoxu/icml18-jtnn/VAEdesign/targets/RdRp-SARS-CoV-2/pocket_docking.prm

>  <SCORE>
-18.5298

>  <SCORE.INTER>
-20.3643

>  <SCORE.INTER.CONST>
1

>  <SCORE.INTER.POLAR>
-1.48671

>  <SCORE.INTER.REPUL>
0.00833198

>  <SCORE.INTER.ROT>
5

>  <SCORE.INTER.VDW>
-25.7511

>  <SCORE.INTER.norm>
-0.783242

>  <SCORE.INTRA>
1.61061

>  <SCORE.INTRA.DIHEDRAL>
1.68479

>  <SCORE.INTRA.DIHEDRAL.0>
2.98813

>  <SCORE.INTRA.POLAR>
0

>  <SCORE.INTRA.POLAR.0>
0

>  <SCORE.INTRA.REPUL>
0

>  <SCORE.INTRA.REPUL.0>
0

>  <SCORE.INTRA.VDW>
0.768217

>  <SCORE.INTRA.VDW.0>
-2.63513

>  <SCORE.INTRA.norm>
0.0619466

>  <SCORE.RESTR>
0.223867

>  <SCORE.RESTR.CAVITY>
0.223867

>  <SCORE.RESTR.norm>
0.00861029

>  <SCORE.SYSTEM>
0

>  <SCORE.SYSTEM.CONST>
0

>  <SCORE.SYSTEM.DIHEDRAL>
0

>  <SCORE.SYSTEM.norm>
0

>  <SCORE.heavy>
26

>  <SCORE.norm>
-0.712685

$$$$
design_5
 OpenBabel05252019093D

 26 28  0  0  0  0  0  0  0  0999 V2000
   39.9164  -45.3734    9.8696 C   0  0  0  0  0  0  0  0  0  0  0  0
   39.9294  -45.9854    8.5668 N   0  0  0  0  0  0  0  0  0  0  0  0
   38.5924  -46.6033    8.2293 C   0  0  0  0  0  0  0  0  0  0  0  0
   37.8659  -45.7742    7.2614 C   0  0  0  0  0  0  0  0  0  0  0  0
   38.2807  -44.4645    7.0121 C   0  0  0  0  0  0  0  0  0  0  0  0
   37.6459  -43.6438    6.1280 C   0  0  0  0  0  0  0  0  0  0  0  0
   36.5336  -44.1231    5.4377 C   0  0  0  0  0  0  0  0  0  0  0  0
   36.0925  -45.3918    5.6468 C   0  0  0  0  0  0  0  0  0  0  0  0
   36.7624  -46.2079    6.5575 C   0  0  0  0  0  0  0  0  0  0  0  0
   40.9379  -46.0772    7.6210 C   0  0  0  0  0  0  0  0  0  0  0  0
   40.6002  -46.7302    6.5479 O   0  0  0  0  0  0  0  0  0  0  0  0
   42.2919  -45.5661    7.6421 C   0  0  0  0  0  0  0  0  0  0  0  0
   42.8525  -44.8438    8.6581 C   0  0  0  0  0  0  0  0  0  0  0  0
   44.1711  -44.4065    8.5985 C   0  0  0  0  0  0  0  0  0  0  0  0
   44.9425  -44.7007    7.4950 C   0  0  0  0  0  0  0  0  0  0  0  0
   44.4352  -45.4197    6.4489 C   0  0  0  0  0  0  0  0  0  0  0  0
   45.1742  -45.7895    5.2691 N   0  0  0  0  0  0  0  0  0  0  0  0
   44.7619  -45.6677    3.9512 C   0  0  0  0  0  0  0  0  0  0  0  0
   43.6501  -45.1963    3.6305 O   0  0  0  0  0  0  0  0  0  0  0  0
   45.6098  -46.0888    2.8231 C   0  0  0  0  0  0  0  0  0  0  0  0
   45.1814  -45.9268    1.5142 C   0  0  0  0  0  0  0  0  0  0  0  0
   45.9173  -46.2889    0.4240 C   0  0  0  0  0  0  0  0  0  0  0  0
   47.1598  -46.8497    0.6047 C   0  0  0  0  0  0  0  0  0  0  0  0
   47.6136  -47.0238    1.8884 C   0  0  0  0  0  0  0  0  0  0  0  0
   46.8462  -46.6468    2.9958 C   0  0  0  0  0  0  0  0  0  0  0  0
   43.1212  -45.8358    6.5461 C   0  0  0  0  0  0  0  0  0  0  0  0
  1  2  1  0  0  0  0
  2  3  1  0  0  0  0
  2 10  1  0  0  0  0
  3  4  1  0  0  0  0
  4  5  2  0  0  0  0
  5  6  1  0  0  0  0
  6  7  2  0  0  0  0
  7  8  1  0  0  0  0
  8  9  2  0  0  0  0
  9  4  1  0  0  0  0
 10 11  2  0  0  0  0
 10 12  1  0  0  0  0
 12 13  2  0  0  0  0
 13 14  1  0  0  0  0
 14 15  2  0  0  0  0
 15 16  1  0  0  0  0
 16 17  1  0  0  0  0
 16 26  2  0  0  0  0
 17 18  1  0  0  0  0
 18 19  2  0  0  0  0
 18 20  1  0  0  0  0
 20 21  2  0  0  0  0
 21 22  1  0  0  0  0
 22 23  2  0  0  0  0
 23 24  1  0  0  0  0
 24 25  2  0  0  0  0
 25 20  1  0  0  0  0
 26 12  1  0  0  0  0
M  END
>  <CHROM.1>
104.78897732,-14.35987033,-0.69153076,-133.06524654,-178.55808120,42.16857665
-45.64721343,5.69140593,-2.59138115,0.05290202,-1.66909573

>  <Name>
design_5

>  <RI>
0

>  <Rbt.Current_Directory>
/home/ziqiaoxu/icml18-jtnn/VAEdesign

>  <Rbt.Executable>
rbdock ($Id: //depot/dev/client3/rdock/2013.1/src/exe/rbdock.cxx#4 $)

>  <Rbt.Library>
libRbt.so (2013.1, Build901 2013/11/27)

>  <Rbt.Parameter_File>
/export/apps/rDock/src/rDock_2013.1_src//data/scripts/dock.prm

>  <Rbt.Receptor>
/home/ziqiaoxu/icml18-jtnn/VAEdesign/targets/RdRp-SARS-CoV-2/pocket_docking.prm

>  <SCORE>
-14.1739

>  <SCORE.INTER>
-16.9323

>  <SCORE.INTER.CONST>
1

>  <SCORE.INTER.POLAR>
-0.465492

>  <SCORE.INTER.REPUL>
0

>  <SCORE.INTER.ROT>
5

>  <SCORE.INTER.VDW>
-25.7496

>  <SCORE.INTER.norm>
-0.651242

>  <SCORE.INTRA>
2.75844

>  <SCORE.INTRA.DIHEDRAL>
4.91597

>  <SCORE.INTRA.DIHEDRAL.0>
4.00335

>  <SCORE.INTRA.POLAR>
0

>  <SCORE.INTRA.POLAR.0>
0

>  <SCORE.INTRA.REPUL>
0

>  <SCORE.INTRA.REPUL.0>
0

>  <SCORE.INTRA.VDW>
0.300455

>  <SCORE.INTRA.VDW.0>
-0.901352

>  <SCORE.INTRA.norm>
0.106094

>  <SCORE.RESTR>
0

>  <SCORE.RESTR.CAVITY>
0

>  <SCORE.RESTR.norm>
0

>  <SCORE.SYSTEM>
0

>  <SCORE.SYSTEM.CONST>
0

>  <SCORE.SYSTEM.DIHEDRAL>
0

>  <SCORE.SYSTEM.norm>
0

>  <SCORE.heavy>
26

>  <SCORE.norm>
-0.545148

$$$$
design_5
 OpenBabel05252019093D

 26 28  0  0  0  0  0  0  0  0999 V2000
   39.8202  -36.7371    4.3077 C   0  0  0  0  0  0  0  0  0  0  0  0
   40.4474  -37.7515    3.4166 C   0  0  0  0  0  0  0  0  0  0  0  0
   40.5041  -37.6301    2.0513 C   0  0  0  0  0  0  0  0  0  0  0  0
   41.0916  -38.5848    1.2418 C   0  0  0  0  0  0  0  0  0  0  0  0
   41.6413  -39.7076    1.8675 C   0  0  0  0  0  0  0  0  0  0  0  0
   42.2962  -40.7754    1.0294 C   0  0  0  0  0  0  0  0  0  0  0  0
   41.7759  -42.0445    1.4792 N   0  0  0  0  0  0  0  0  0  0  0  0
   42.5616  -43.1380    1.9169 C   0  0  0  0  0  0  0  0  0  0  0  0
   43.8089  -43.0067    1.9179 O   0  0  0  0  0  0  0  0  0  0  0  0
   41.9548  -44.3473    2.3422 N   0  0  0  0  0  0  0  0  0  0  0  0
   40.5028  -44.4602    2.3210 C   0  0  0  0  0  0  0  0  0  0  0  0
   42.7544  -45.4577    2.7962 C   0  0  0  0  0  0  0  0  0  0  0  0
   42.6538  -45.6525    4.2625 C   0  0  0  0  0  0  0  0  0  0  0  0
   43.5867  -45.0904    5.1022 C   0  0  0  0  0  0  0  0  0  0  0  0
   43.4961  -45.2672    6.4879 C   0  0  0  0  0  0  0  0  0  0  0  0
   42.4493  -46.0182    6.9893 C   0  0  0  0  0  0  0  0  0  0  0  0
   41.5192  -46.5775    6.1382 C   0  0  0  0  0  0  0  0  0  0  0  0
   40.4347  -47.3577    6.6849 N   0  0  0  0  0  0  0  0  0  0  0  0
   39.6441  -48.1869    6.0021 C   0  0  0  0  0  0  0  0  0  0  0  0
   38.7307  -48.7475    6.8621 C   0  0  0  0  0  0  0  0  0  0  0  0
   39.0153  -48.2106    8.0969 C   0  0  0  0  0  0  0  0  0  0  0  0
   40.0484  -47.3809    7.9369 N   0  0  0  0  0  0  0  0  0  0  0  0
   41.5964  -46.4115    4.7716 C   0  0  0  0  0  0  0  0  0  0  0  0
   41.5876  -39.8343    3.2357 C   0  0  0  0  0  0  0  0  0  0  0  0
   40.9934  -38.8623    4.0131 C   0  0  0  0  0  0  0  0  0  0  0  0
   40.9565  -39.0421    5.5094 C   0  0  0  0  0  0  0  0  0  0  0  0
  1  2  1  0  0  0  0
  2  3  2  0  0  0  0
  3  4  1  0  0  0  0
  4  5  2  0  0  0  0
  5  6  1  0  0  0  0
  5 24  1  0  0  0  0
  6  7  1  0  0  0  0
  7  8  1  0  0  0  0
  8  9  2  0  0  0  0
  8 10  1  0  0  0  0
 10 11  1  0  0  0  0
 10 12  1  0  0  0  0
 12 13  1  0  0  0  0
 13 14  2  0  0  0  0
 14 15  1  0  0  0  0
 15 16  2  0  0  0  0
 16 17  1  0  0  0  0
 17 18  1  0  0  0  0
 17 23  2  0  0  0  0
 18 19  1  0  0  0  0
 19 20  2  0  0  0  0
 20 21  1  0  0  0  0
 21 22  2  0  0  0  0
 22 18  1  0  0  0  0
 23 13  1  0  0  0  0
 24 25  2  0  0  0  0
 25 26  1  0  0  0  0
 25  2  1  0  0  0  0
M  END
>  <CHROM.1>
-132.24663595,-124.93771408,107.93804532,-94.63040353,-164.44722713,41.38053437
-43.30113574,4.15606132,1.48573981,0.98344904,-0.35113955

>  <Name>
design_5

>  <RI>
0

>  <Rbt.Current_Directory>
/home/ziqiaoxu/icml18-jtnn/VAEdesign

>  <Rbt.Executable>
rbdock ($Id: //depot/dev/client3/rdock/2013.1/src/exe/rbdock.cxx#4 $)

>  <Rbt.Library>
libRbt.so (2013.1, Build901 2013/11/27)

>  <Rbt.Parameter_File>
/export/apps/rDock/src/rDock_2013.1_src//data/scripts/dock.prm

>  <Rbt.Receptor>
/home/ziqiaoxu/icml18-jtnn/VAEdesign/targets/RdRp-SARS-CoV-2/pocket_docking.prm

>  <SCORE>
-17.5663

>  <SCORE.INTER>
-18.4263

>  <SCORE.INTER.CONST>
1

>  <SCORE.INTER.POLAR>
-0.905105

>  <SCORE.INTER.REPUL>
0

>  <SCORE.INTER.ROT>
5

>  <SCORE.INTER.VDW>
-25.749

>  <SCORE.INTER.norm>
-0.708705

>  <SCORE.INTRA>
0.859999

>  <SCORE.INTRA.DIHEDRAL>
-0.0798599

>  <SCORE.INTRA.DIHEDRAL.0>
4.84182

>  <SCORE.INTRA.POLAR>
0

>  <SCORE.INTRA.POLAR.0>
0

>  <SCORE.INTRA.REPUL>
0

>  <SCORE.INTRA.REPUL.0>
0

>  <SCORE.INTRA.VDW>
0.899929

>  <SCORE.INTRA.VDW.0>
-2.13792

>  <SCORE.INTRA.norm>
0.0330769

>  <SCORE.RESTR>
0

>  <SCORE.RESTR.CAVITY>
0

>  <SCORE.RESTR.norm>
0

>  <SCORE.SYSTEM>
0

>  <SCORE.SYSTEM.CONST>
0

>  <SCORE.SYSTEM.DIHEDRAL>
0

>  <SCORE.SYSTEM.norm>
0

>  <SCORE.heavy>
26

>  <SCORE.norm>
-0.675628

$$$$
design_5
 OpenBabel05252019093D

 24 26  0  0  0  0  0  0  0  0999 V2000
   40.2804  -46.0132   10.9755 N   0  0  0  0  0  0  0  0  0  0  0  0
   40.7548  -45.2475    9.5000 S   0  0  0  0  0  0  0  0  0  0  0  0
   40.0144  -43.9375    9.4095 O   0  0  0  0  0  0  0  0  0  0  0  0
   42.2303  -44.9352    9.5553 O   0  0  0  0  0  0  0  0  0  0  0  0
   40.4012  -46.2783    8.1208 C   0  0  0  0  0  0  0  0  0  0  0  0
   39.6023  -47.3949    8.3042 C   0  0  0  0  0  0  0  0  0  0  0  0
   39.2822  -48.2383    7.2639 C   0  0  0  0  0  0  0  0  0  0  0  0
   39.7761  -47.9622    5.9806 C   0  0  0  0  0  0  0  0  0  0  0  0
   40.5695  -46.8643    5.7647 C   0  0  0  0  0  0  0  0  0  0  0  0
   41.1024  -46.5024    4.5104 N   0  0  0  0  0  0  0  0  0  0  0  0
   41.6789  -45.2470    4.2782 C   0  0  0  0  0  0  0  0  0  0  0  0
   41.7111  -44.3749    5.1546 O   0  0  0  0  0  0  0  0  0  0  0  0
   42.2952  -44.9157    2.9358 C   0  0  0  0  0  0  0  0  0  0  0  0
   43.6712  -45.3204    2.9195 C   0  0  0  0  0  0  0  0  0  0  0  0
   44.4582  -45.2749    4.0449 C   0  0  0  0  0  0  0  0  0  0  0  0
   45.8056  -45.6901    3.9929 C   0  0  0  0  0  0  0  0  0  0  0  0
   46.3644  -46.1500    2.8270 C   0  0  0  0  0  0  0  0  0  0  0  0
   45.5788  -46.2002    1.6898 C   0  0  0  0  0  0  0  0  0  0  0  0
   46.0819  -46.6635    0.4846 C   0  0  0  0  0  0  0  0  0  0  0  0
   45.3249  -46.7351   -0.6684 C   0  0  0  0  0  0  0  0  0  0  0  0
   44.0080  -46.3157   -0.5726 C   0  0  0  0  0  0  0  0  0  0  0  0
   43.4785  -45.8518    0.6079 C   0  0  0  0  0  0  0  0  0  0  0  0
   44.2494  -45.7886    1.7435 C   0  0  0  0  0  0  0  0  0  0  0  0
   40.8721  -46.0319    6.8532 C   0  0  0  0  0  0  0  0  0  0  0  0
  1  2  1  0  0  0  0
  2  3  2  0  0  0  0
  2  4  2  0  0  0  0
  2  5  1  0  0  0  0
  5  6  2  0  0  0  0
  6  7  1  0  0  0  0
  7  8  2  0  0  0  0
  8  9  1  0  0  0  0
  9 10  1  0  0  0  0
  9 24  2  0  0  0  0
 10 11  1  0  0  0  0
 11 12  2  0  0  0  0
 11 13  1  0  0  0  0
 13 14  1  0  0  0  0
 14 15  2  0  0  0  0
 15 16  1  0  0  0  0
 16 17  2  0  0  0  0
 17 18  1  0  0  0  0
 18 19  2  0  0  0  0
 19 20  1  0  0  0  0
 20 21  2  0  0  0  0
 21 22  1  0  0  0  0
 22 23  2  0  0  0  0
 23 14  1  0  0  0  0
 23 18  1  0  0  0  0
 24  5  1  0  0  0  0
M  END
>  <CHROM.1>
43.62445418,11.82482344,167.01702491,-87.92624173,-33.38658586,42.32135196
-45.91926148,5.22405628,-2.14922685,-0.44893947,-1.88023793

>  <Name>
design_5

>  <RI>
0

>  <Rbt.Current_Directory>
/home/ziqiaoxu/icml18-jtnn/VAEdesign

>  <Rbt.Executable>
rbdock ($Id: //depot/dev/client3/rdock/2013.1/src/exe/rbdock.cxx#4 $)

>  <Rbt.Library>
libRbt.so (2013.1, Build901 2013/11/27)

>  <Rbt.Parameter_File>
/export/apps/rDock/src/rDock_2013.1_src//data/scripts/dock.prm

>  <Rbt.Receptor>
/home/ziqiaoxu/icml18-jtnn/VAEdesign/targets/RdRp-SARS-CoV-2/pocket_docking.prm

>  <SCORE>
-27.9483

>  <SCORE.INTER>
-27.2561

>  <SCORE.INTER.CONST>
1

>  <SCORE.INTER.POLAR>
-3.50237

>  <SCORE.INTER.REPUL>
0

>  <SCORE.INTER.ROT>
5

>  <SCORE.INTER.VDW>
-25.748

>  <SCORE.INTER.norm>
-1.13567

>  <SCORE.INTRA>
-0.692182

>  <SCORE.INTRA.DIHEDRAL>
-3.29077

>  <SCORE.INTRA.DIHEDRAL.0>
7.70411

>  <SCORE.INTRA.POLAR>
0

>  <SCORE.INTRA.POLAR.0>
0

>  <SCORE.INTRA.REPUL>
0

>  <SCORE.INTRA.REPUL.0>
0

>  <SCORE.INTRA.VDW>
0.953203

>  <SCORE.INTRA.VDW.0>
-0.0881685

>  <SCORE.INTRA.norm>
-0.0288409

>  <SCORE.RESTR>
0

>  <SCORE.RESTR.CAVITY>
0

>  <SCORE.RESTR.norm>
0

>  <SCORE.SYSTEM>
0

>  <SCORE.SYSTEM.CONST>
0

>  <SCORE.SYSTEM.DIHEDRAL>
0

>  <SCORE.SYSTEM.norm>
0

>  <SCORE.heavy>
24

>  <SCORE.norm>
-1.16451

$$$$
design_1
 OpenBabel05252019093D

 27 29  0  0  0  0  0  0  0  0999 V2000
   41.5743  -46.2348    6.0348 C   0  0  0  0  0  0  0  0  0  0  0  0
   40.5635  -46.9911    6.7884 C   0  0  0  0  0  0  0  0  0  0  0  0
   40.0239  -48.0937    6.1344 C   0  0  0  0  0  0  0  0  0  0  0  0
   39.1069  -48.9010    6.7363 C   0  0  0  0  0  0  0  0  0  0  0  0
   38.7211  -48.5998    8.0210 C   0  0  0  0  0  0  0  0  0  0  0  0
   39.2552  -47.5164    8.6536 C   0  0  0  0  0  0  0  0  0  0  0  0
   40.2009  -46.6640    8.0615 C   0  0  0  0  0  0  0  0  0  0  0  0
   40.6396  -45.5327    8.8180 C   0  0  0  0  0  0  0  0  0  0  0  0
   41.6726  -44.9140    8.3486 O   0  0  0  0  0  0  0  0  0  0  0  0
   40.1075  -44.9958   10.0097 N   0  0  0  0  0  0  0  0  0  0  0  0
   40.6775  -43.8241   10.6494 C   0  0  0  0  0  0  0  0  0  0  0  0
   42.0069  -44.1604   11.2789 C   0  0  0  0  0  0  0  0  0  0  0  0
   41.9856  -44.4735   12.4783 O   0  0  0  0  0  0  0  0  0  0  0  0
   43.1925  -44.1182   10.5394 N   0  0  0  0  0  0  0  0  0  0  0  0
   44.4688  -44.4004   11.0383 C   0  0  0  0  0  0  0  0  0  0  0  0
   44.6981  -44.7188   12.3772 C   0  0  0  0  0  0  0  0  0  0  0  0
   46.0089  -44.8791   12.8411 C   0  0  0  0  0  0  0  0  0  0  0  0
   46.1579  -45.1901   14.1519 F   0  0  0  0  0  0  0  0  0  0  0  0
   47.1017  -44.7346   12.0282 C   0  0  0  0  0  0  0  0  0  0  0  0
   46.8651  -44.4240   10.7206 C   0  0  0  0  0  0  0  0  0  0  0  0
   45.5622  -44.2555   10.2098 C   0  0  0  0  0  0  0  0  0  0  0  0
   45.4772  -44.0316    8.8447 N   0  0  0  0  0  0  0  0  0  0  0  0
   44.6402  -44.9661    8.0292 C   0  0  0  0  0  0  0  0  0  0  0  0
   45.0295  -44.7963    6.5688 C   0  0  0  0  0  0  0  0  0  0  0  0
   44.7453  -43.5372    6.0717 O   0  0  0  0  0  0  0  0  0  0  0  0
   44.8538  -42.6030    7.0800 C   0  0  0  0  0  0  0  0  0  0  0  0
   46.0143  -42.9871    8.0214 C   0  0  0  0  0  0  0  0  0  0  0  0
  1  2  1  0  0  0  0
  2  3  2  0  0  0  0
  3  4  1  0  0  0  0
  4  5  2  0  0  0  0
  5  6  1  0  0  0  0
  6  7  2  0  0  0  0
  7  8  1  0  0  0  0
  7  2  1  0  0  0  0
  8  9  2  0  0  0  0
  8 10  1  0  0  0  0
 10 11  1  0  0  0  0
 11 12  1  0  0  0  0
 12 13  2  0  0  0  0
 12 14  1  0  0  0  0
 14 15  1  0  0  0  0
 15 16  2  0  0  0  0
 16 17  1  0  0  0  0
 17 18  1  0  0  0  0
 17 19  2  0  0  0  0
 19 20  1  0  0  0  0
 20 21  2  0  0  0  0
 21 22  1  0  0  0  0
 21 15  1  0  0  0  0
 22 23  1  0  0  0  0
 23 24  1  0  0  0  0
 24 25  1  0  0  0  0
 25 26  1  0  0  0  0
 26 27  1  0  0  0  0
 27 22  1  0  0  0  0
M  END
>  <CHROM.1>
-14.58738629,-71.59787491,-94.10744515,-2.27100786,-52.51443304,43.06123995
-45.15947102,9.31295759,-2.59935774,0.46446705,1.58464291

>  <Name>
design_1

>  <RI>
0

>  <Rbt.Current_Directory>
/home/ziqiaoxu/icml18-jtnn/VAEdesign

>  <Rbt.Executable>
rbdock ($Id: //depot/dev/client3/rdock/2013.1/src/exe/rbdock.cxx#4 $)

>  <Rbt.Library>
libRbt.so (2013.1, Build901 2013/11/27)

>  <Rbt.Parameter_File>
/export/apps/rDock/src/rDock_2013.1_src//data/scripts/dock.prm

>  <Rbt.Receptor>
/home/ziqiaoxu/icml18-jtnn/VAEdesign/targets/RdRp-SARS-CoV-2/pocket_docking.prm

>  <SCORE>
-21.0752

>  <SCORE.INTER>
-18.6146

>  <SCORE.INTER.CONST>
1

>  <SCORE.INTER.POLAR>
-0.960995

>  <SCORE.INTER.REPUL>
0

>  <SCORE.INTER.ROT>
5

>  <SCORE.INTER.VDW>
-25.7473

>  <SCORE.INTER.norm>
-0.689431

>  <SCORE.INTRA>
-2.46051

>  <SCORE.INTRA.DIHEDRAL>
2.74915

>  <SCORE.INTRA.DIHEDRAL.0>
9.32583

>  <SCORE.INTRA.POLAR>
-0.311591

>  <SCORE.INTRA.POLAR.0>
0

>  <SCORE.INTRA.REPUL>
0

>  <SCORE.INTRA.REPUL.0>
0

>  <SCORE.INTRA.VDW>
-2.77568

>  <SCORE.INTRA.VDW.0>
2.28153

>  <SCORE.INTRA.norm>
-0.0911301

>  <SCORE.RESTR>
0

>  <SCORE.RESTR.CAVITY>
0

>  <SCORE.RESTR.norm>
0

>  <SCORE.SYSTEM>
0

>  <SCORE.SYSTEM.CONST>
0

>  <SCORE.SYSTEM.DIHEDRAL>
0

>  <SCORE.SYSTEM.norm>
0

>  <SCORE.heavy>
27

>  <SCORE.norm>
-0.780561

$$$$
design_19
 OpenBabel05252019093D

 23 24  0  0  0  0  0  0  0  0999 V2000
   41.0215  -36.1666    1.8990 C   0  0  0  0  0  0  0  0  0  0  0  0
   39.6470  -36.4868    2.3781 C   0  0  0  0  0  0  0  0  0  0  0  0
   39.5588  -36.4614    3.8021 N   0  0  0  0  0  0  0  0  0  0  0  0
   39.6654  -37.6577    4.5804 C   0  0  0  0  0  0  0  0  0  0  0  0
   39.8208  -38.7171    3.9488 O   0  0  0  0  0  0  0  0  0  0  0  0
   39.5897  -37.5453    5.9907 N   0  0  0  0  0  0  0  0  0  0  0  0
   39.6581  -38.5996    6.9310 C   0  0  0  0  0  0  0  0  0  0  0  0
   39.0848  -39.8185    6.7044 C   0  0  0  0  0  0  0  0  0  0  0  0
   39.1985  -40.8364    7.6466 C   0  0  0  0  0  0  0  0  0  0  0  0
   39.8877  -40.6250    8.8157 C   0  0  0  0  0  0  0  0  0  0  0  0
   39.9499  -41.6939    9.7670 N   0  0  0  0  0  0  0  0  0  0  0  0
   40.0729  -43.0014    9.2538 C   0  0  0  0  0  0  0  0  0  0  0  0
   40.1117  -43.2072    7.9999 O   0  0  0  0  0  0  0  0  0  0  0  0
   40.1662  -44.1740   10.1436 C   0  0  0  0  0  0  0  0  0  0  0  0
   40.1528  -45.3736    9.2546 C   0  0  0  0  0  0  0  0  0  0  0  0
   39.0030  -46.1198    9.1650 C   0  0  0  0  0  0  0  0  0  0  0  0
   38.9196  -47.2005    8.3287 C   0  0  0  0  0  0  0  0  0  0  0  0
   40.0293  -47.5274    7.5686 C   0  0  0  0  0  0  0  0  0  0  0  0
   39.9702  -48.5862    6.7351 F   0  0  0  0  0  0  0  0  0  0  0  0
   41.2150  -46.7907    7.6375 C   0  0  0  0  0  0  0  0  0  0  0  0
   41.2343  -45.7166    8.4967 C   0  0  0  0  0  0  0  0  0  0  0  0
   40.4705  -39.4251    9.0736 C   0  0  0  0  0  0  0  0  0  0  0  0
   40.3595  -38.4149    8.1420 C   0  0  0  0  0  0  0  0  0  0  0  0
  1  2  1  0  0  0  0
  2  3  1  0  0  0  0
  3  4  1  0  0  0  0
  4  5  2  0  0  0  0
  4  6  1  0  0  0  0
  6  7  1  0  0  0  0
  7  8  2  0  0  0  0
  8  9  1  0  0  0  0
  9 10  2  0  0  0  0
 10 11  1  0  0  0  0
 10 22  1  0  0  0  0
 11 12  1  0  0  0  0
 12 13  2  0  0  0  0
 12 14  1  0  0  0  0
 14 15  1  0  0  0  0
 15 16  2  0  0  0  0
 16 17  1  0  0  0  0
 17 18  2  0  0  0  0
 18 19  1  0  0  0  0
 18 20  1  0  0  0  0
 20 21  2  0  0  0  0
 21 15  1  0  0  0  0
 22 23  2  0  0  0  0
 23  7  1  0  0  0  0
M  END
>  <CHROM.1>
-96.54054566,-37.77920444,37.47704989,174.76006867,-104.09955955,39.94962651
-41.74111935,7.05611670,-1.93911588,-1.53889014,2.36082376

>  <Name>
design_19

>  <RI>
0

>  <Rbt.Current_Directory>
/home/ziqiaoxu/icml18-jtnn/VAEdesign

>  <Rbt.Executable>
rbdock ($Id: //depot/dev/client3/rdock/2013.1/src/exe/rbdock.cxx#4 $)

>  <Rbt.Library>
libRbt.so (2013.1, Build901 2013/11/27)

>  <Rbt.Parameter_File>
/export/apps/rDock/src/rDock_2013.1_src//data/scripts/dock.prm

>  <Rbt.Receptor>
/home/ziqiaoxu/icml18-jtnn/VAEdesign/targets/RdRp-SARS-CoV-2/pocket_docking.prm

>  <SCORE>
-18.3463

>  <SCORE.INTER>
-19.1471

>  <SCORE.INTER.CONST>
1

>  <SCORE.INTER.POLAR>
-1.11803

>  <SCORE.INTER.REPUL>
0

>  <SCORE.INTER.ROT>
5

>  <SCORE.INTER.VDW>
-25.7457

>  <SCORE.INTER.norm>
-0.832481

>  <SCORE.INTRA>
0.800726

>  <SCORE.INTRA.DIHEDRAL>
-3.44349

>  <SCORE.INTRA.DIHEDRAL.0>
16.3162

>  <SCORE.INTRA.POLAR>
0

>  <SCORE.INTRA.POLAR.0>
0

>  <SCORE.INTRA.REPUL>
0

>  <SCORE.INTRA.REPUL.0>
0

>  <SCORE.INTRA.VDW>
2.52247

>  <SCORE.INTRA.VDW.0>
-0.940697

>  <SCORE.INTRA.norm>
0.0348142

>  <SCORE.RESTR>
0

>  <SCORE.RESTR.CAVITY>
0

>  <SCORE.RESTR.norm>
0

>  <SCORE.SYSTEM>
0

>  <SCORE.SYSTEM.CONST>
0

>  <SCORE.SYSTEM.DIHEDRAL>
0

>  <SCORE.SYSTEM.norm>
0

>  <SCORE.heavy>
23

>  <SCORE.norm>
-0.797667

$$$$
design_11
 OpenBabel05252019093D

 23 24  0  0  0  0  0  0  0  0999 V2000
   38.7241  -48.8420    6.7047 C   0  0  0  0  0  0  0  0  0  0  0  0
   39.3827  -47.8171    7.5480 C   0  0  0  0  0  0  0  0  0  0  0  0
   38.7605  -47.3652    8.7014 C   0  0  0  0  0  0  0  0  0  0  0  0
   39.3713  -46.4106    9.4890 C   0  0  0  0  0  0  0  0  0  0  0  0
   40.6079  -45.9163    9.1088 C   0  0  0  0  0  0  0  0  0  0  0  0
   41.2471  -46.3530    7.9620 C   0  0  0  0  0  0  0  0  0  0  0  0
   42.5696  -45.7857    7.5967 C   0  0  0  0  0  0  0  0  0  0  0  0
   43.0352  -46.0988    6.4777 O   0  0  0  0  0  0  0  0  0  0  0  0
   43.2556  -44.9437    8.4632 N   0  0  0  0  0  0  0  0  0  0  0  0
   44.5136  -44.3422    8.2503 C   0  0  0  0  0  0  0  0  0  0  0  0
   45.1408  -43.4716    9.0981 C   0  0  0  0  0  0  0  0  0  0  0  0
   46.4042  -42.9180    8.8327 C   0  0  0  0  0  0  0  0  0  0  0  0
   47.0414  -43.2707    7.6585 C   0  0  0  0  0  0  0  0  0  0  0  0
   46.4605  -44.1338    6.7788 C   0  0  0  0  0  0  0  0  0  0  0  0
   47.1693  -44.4860    5.5395 C   0  0  0  0  0  0  0  0  0  0  0  0
   47.9999  -43.6211    5.0813 O   0  0  0  0  0  0  0  0  0  0  0  0
   47.0120  -45.6745    4.8288 N   0  0  0  0  0  0  0  0  0  0  0  0
   47.7659  -45.9128    3.6165 C   0  0  0  0  0  0  0  0  0  0  0  0
   48.0773  -47.3529    3.5112 C   0  0  0  0  0  0  0  0  0  0  0  0
   49.1423  -47.8895    4.2610 N   0  0  0  0  0  0  0  0  0  0  0  0
   47.3957  -48.0831    2.7598 O   0  0  0  0  0  0  0  0  0  0  0  0
   45.2409  -44.6404    7.0816 C   0  0  0  0  0  0  0  0  0  0  0  0
   40.6326  -47.2997    7.1880 C   0  0  0  0  0  0  0  0  0  0  0  0
  1  2  1  0  0  0  0
  2  3  2  0  0  0  0
  3  4  1  0  0  0  0
  4  5  2  0  0  0  0
  5  6  1  0  0  0  0
  6  7  1  0  0  0  0
  6 23  2  0  0  0  0
  7  8  2  0  0  0  0
  7  9  1  0  0  0  0
  9 10  1  0  0  0  0
 10 11  2  0  0  0  0
 11 12  1  0  0  0  0
 12 13  2  0  0  0  0
 13 14  1  0  0  0  0
 14 15  1  0  0  0  0
 14 22  2  0  0  0  0
 15 16  2  0  0  0  0
 15 17  1  0  0  0  0
 17 18  1  0  0  0  0
 18 19  1  0  0  0  0
 19 20  1  0  0  0  0
 19 21  2  0  0  0  0
 22 10  1  0  0  0  0
 23  2  1  0  0  0  0
M  END
>  <CHROM.1>
-172.11203033,177.05920798,-26.89738948,146.28981162,-79.34055235,44.30499626
-45.80959861,6.71726845,2.98187036,0.40064676,0.75236990

>  <Name>
design_11

>  <RI>
0

>  <Rbt.Current_Directory>
/home/ziqiaoxu/icml18-jtnn/VAEdesign

>  <Rbt.Executable>
rbdock ($Id: //depot/dev/client3/rdock/2013.1/src/exe/rbdock.cxx#4 $)

>  <Rbt.Library>
libRbt.so (2013.1, Build901 2013/11/27)

>  <Rbt.Parameter_File>
/export/apps/rDock/src/rDock_2013.1_src//data/scripts/dock.prm

>  <Rbt.Receptor>
/home/ziqiaoxu/icml18-jtnn/VAEdesign/targets/RdRp-SARS-CoV-2/pocket_docking.prm

>  <SCORE>
-20.2975

>  <SCORE.INTER>
-21.0248

>  <SCORE.INTER.CONST>
1

>  <SCORE.INTER.POLAR>
-1.67126

>  <SCORE.INTER.REPUL>
0

>  <SCORE.INTER.ROT>
5

>  <SCORE.INTER.VDW>
-25.7425

>  <SCORE.INTER.norm>
-0.91412

>  <SCORE.INTRA>
0.72724

>  <SCORE.INTRA.DIHEDRAL>
1.7232

>  <SCORE.INTRA.DIHEDRAL.0>
3.70274

>  <SCORE.INTRA.POLAR>
0

>  <SCORE.INTRA.POLAR.0>
0

>  <SCORE.INTRA.REPUL>
0

>  <SCORE.INTRA.REPUL.0>
0

>  <SCORE.INTRA.VDW>
-0.134361

>  <SCORE.INTRA.VDW.0>
-0.272627

>  <SCORE.INTRA.norm>
0.0316191

>  <SCORE.RESTR>
0

>  <SCORE.RESTR.CAVITY>
0

>  <SCORE.RESTR.norm>
0

>  <SCORE.SYSTEM>
0

>  <SCORE.SYSTEM.CONST>
0

>  <SCORE.SYSTEM.DIHEDRAL>
0

>  <SCORE.SYSTEM.norm>
0

>  <SCORE.heavy>
23

>  <SCORE.norm>
-0.882501

$$$$
design_12
 OpenBabel05252019093D

 26 28  0  0  0  0  0  0  0  0999 V2000
   48.4144  -47.4278    3.6446 C   0  0  0  0  0  0  0  0  0  0  0  0
   47.1697  -46.8914    3.1243 N   0  0  0  0  0  0  0  0  0  0  0  0
   46.3844  -46.2618    3.9557 N   0  0  0  0  0  0  0  0  0  0  0  0
   45.1976  -45.7236    3.5666 C   0  0  0  0  0  0  0  0  0  0  0  0
   44.3859  -45.0326    4.5472 C   0  0  0  0  0  0  0  0  0  0  0  0
   43.2413  -44.6217    4.3188 O   0  0  0  0  0  0  0  0  0  0  0  0
   44.9517  -44.8095    5.8742 N   0  0  0  0  0  0  0  0  0  0  0  0
   44.1258  -44.1195    6.8295 C   0  0  0  0  0  0  0  0  0  0  0  0
   43.7012  -44.9786    7.9692 C   0  0  0  0  0  0  0  0  0  0  0  0
   42.6797  -45.9105    7.4892 N   0  0  0  0  0  0  0  0  0  0  0  0
   41.5048  -46.1045    8.2542 C   0  0  0  0  0  0  0  0  0  0  0  0
   41.3866  -45.4536    9.3376 O   0  0  0  0  0  0  0  0  0  0  0  0
   40.4831  -47.0185    7.8009 C   0  0  0  0  0  0  0  0  0  0  0  0
   40.5037  -47.5909    6.5613 C   0  0  0  0  0  0  0  0  0  0  0  0
   39.4919  -48.4775    6.1531 C   0  0  0  0  0  0  0  0  0  0  0  0
   38.4897  -48.7351    7.0606 C   0  0  0  0  0  0  0  0  0  0  0  0
   38.4585  -48.1797    8.2798 N   0  0  0  0  0  0  0  0  0  0  0  0
   39.4385  -47.3313    8.6532 C   0  0  0  0  0  0  0  0  0  0  0  0
   44.8379  -45.8592    2.2548 C   0  0  0  0  0  0  0  0  0  0  0  0
   43.6706  -45.3471    1.7483 C   0  0  0  0  0  0  0  0  0  0  0  0
   43.2931  -45.4697    0.4081 C   0  0  0  0  0  0  0  0  0  0  0  0
   44.1453  -46.1388   -0.4285 C   0  0  0  0  0  0  0  0  0  0  0  0
   45.3286  -46.6708    0.0274 C   0  0  0  0  0  0  0  0  0  0  0  0
   45.6817  -46.5368    1.3583 C   0  0  0  0  0  0  0  0  0  0  0  0
   46.8653  -47.0506    1.8407 C   0  0  0  0  0  0  0  0  0  0  0  0
   47.6410  -47.6602    1.0716 O   0  0  0  0  0  0  0  0  0  0  0  0
  1  2  1  0  0  0  0
  2  3  1  0  0  0  0
  3  4  2  0  0  0  0
  4  5  1  0  0  0  0
  4 19  1  0  0  0  0
  5  6  2  0  0  0  0
  5  7  1  0  0  0  0
  7  8  1  0  0  0  0
  8  9  1  0  0  0  0
  9 10  1  0  0  0  0
 10 11  1  0  0  0  0
 11 12  2  0  0  0  0
 11 13  1  0  0  0  0
 13 14  2  0  0  0  0
 14 15  1  0  0  0  0
 15 16  2  0  0  0  0
 16 17  1  0  0  0  0
 17 18  2  0  0  0  0
 18 13  1  0  0  0  0
 19 20  2  0  0  0  0
 20 21  1  0  0  0  0
 21 22  2  0  0  0  0
 22 23  1  0  0  0  0
 23 24  2  0  0  0  0
 24 25  1  0  0  0  0
 24 19  1  0  0  0  0
 25 26  2  0  0  0  0
 25  2  1  0  0  0  0
M  END
>  <CHROM.1>
-173.01422223,112.83329787,-73.54150493,-134.02992162,-8.99270308,43.56127226
-46.34668638,4.72968248,-0.77361900,0.31505571,1.34481494

>  <Name>
design_12

>  <RI>
0

>  <Rbt.Current_Directory>
/home/ziqiaoxu/icml18-jtnn/VAEdesign

>  <Rbt.Executable>
rbdock ($Id: //depot/dev/client3/rdock/2013.1/src/exe/rbdock.cxx#4 $)

>  <Rbt.Library>
libRbt.so (2013.1, Build901 2013/11/27)

>  <Rbt.Parameter_File>
/export/apps/rDock/src/rDock_2013.1_src//data/scripts/dock.prm

>  <Rbt.Receptor>
/home/ziqiaoxu/icml18-jtnn/VAEdesign/targets/RdRp-SARS-CoV-2/pocket_docking.prm

>  <SCORE>
-15.718

>  <SCORE.INTER>
-15.3416

>  <SCORE.INTER.CONST>
1

>  <SCORE.INTER.POLAR>
0

>  <SCORE.INTER.REPUL>
0

>  <SCORE.INTER.ROT>
5

>  <SCORE.INTER.VDW>
-25.7416

>  <SCORE.INTER.norm>
-0.59006

>  <SCORE.INTRA>
-0.37644

>  <SCORE.INTRA.DIHEDRAL>
0.818654

>  <SCORE.INTRA.DIHEDRAL.0>
2.76371

>  <SCORE.INTRA.POLAR>
-0.00147043

>  <SCORE.INTRA.POLAR.0>
-0.00466473

>  <SCORE.INTRA.REPUL>
0

>  <SCORE.INTRA.REPUL.0>
0

>  <SCORE.INTRA.VDW>
-0.780767

>  <SCORE.INTRA.VDW.0>
-0.301989

>  <SCORE.INTRA.norm>
-0.0144784

>  <SCORE.RESTR>
0

>  <SCORE.RESTR.CAVITY>
0

>  <SCORE.RESTR.norm>
0

>  <SCORE.SYSTEM>
0

>  <SCORE.SYSTEM.CONST>
0

>  <SCORE.SYSTEM.DIHEDRAL>
0

>  <SCORE.SYSTEM.norm>
0

>  <SCORE.heavy>
26

>  <SCORE.norm>
-0.604538

$$$$
design_6
 OpenBabel05252019093D

 26 28  0  0  0  0  0  0  0  0999 V2000
   40.2234  -37.5895    5.0209 C   0  0  0  0  0  0  0  0  0  0  0  0
   40.1852  -38.6061    6.1190 C   0  0  0  0  0  0  0  0  0  0  0  0
   40.0467  -39.9542    5.8520 C   0  0  0  0  0  0  0  0  0  0  0  0
   40.0192  -40.9066    6.8692 C   0  0  0  0  0  0  0  0  0  0  0  0
   40.1280  -40.5581    8.1854 C   0  0  0  0  0  0  0  0  0  0  0  0
   40.1591  -41.4882    9.3092 C   0  0  0  0  0  0  0  0  0  0  0  0
   40.4904  -42.7878    9.2901 N   0  0  0  0  0  0  0  0  0  0  0  0
   40.3616  -43.3381   10.5213 C   0  0  0  0  0  0  0  0  0  0  0  0
   40.6694  -44.7495   10.8032 C   0  0  0  0  0  0  0  0  0  0  0  0
   40.5644  -45.6102    9.5903 C   0  0  0  0  0  0  0  0  0  0  0  0
   41.6022  -45.8669    8.9626 O   0  0  0  0  0  0  0  0  0  0  0  0
   39.2492  -46.0588    9.2702 N   0  0  0  0  0  0  0  0  0  0  0  0
   38.8675  -46.8815    8.2034 C   0  0  0  0  0  0  0  0  0  0  0  0
   39.2428  -48.1856    8.0435 C   0  0  0  0  0  0  0  0  0  0  0  0
   38.8275  -48.9335    6.9384 C   0  0  0  0  0  0  0  0  0  0  0  0
   38.0240  -48.3451    5.9889 C   0  0  0  0  0  0  0  0  0  0  0  0
   37.6218  -47.0302    6.1103 C   0  0  0  0  0  0  0  0  0  0  0  0
   36.7558  -46.3758    5.0887 C   0  0  0  0  0  0  0  0  0  0  0  0
   36.4655  -47.2988    4.1046 F   0  0  0  0  0  0  0  0  0  0  0  0
   37.3961  -45.2684    4.5404 F   0  0  0  0  0  0  0  0  0  0  0  0
   35.5272  -45.9942    5.6300 F   0  0  0  0  0  0  0  0  0  0  0  0
   38.0525  -46.3342    7.2091 C   0  0  0  0  0  0  0  0  0  0  0  0
   39.9421  -42.3431   11.3094 N   0  0  0  0  0  0  0  0  0  0  0  0
   39.8216  -41.2290   10.5784 N   0  0  0  0  0  0  0  0  0  0  0  0
   40.2654  -39.1884    8.4465 C   0  0  0  0  0  0  0  0  0  0  0  0
   40.2951  -38.2402    7.4514 C   0  0  0  0  0  0  0  0  0  0  0  0
  1  2  1  0  0  0  0
  2  3  2  0  0  0  0
  3  4  1  0  0  0  0
  4  5  2  0  0  0  0
  5  6  1  0  0  0  0
  5 25  1  0  0  0  0
  6  7  2  0  0  0  0
  7  8  1  0  0  0  0
  8  9  1  0  0  0  0
  8 23  2  0  0  0  0
  9 10  1  0  0  0  0
 10 11  2  0  0  0  0
 10 12  1  0  0  0  0
 12 13  1  0  0  0  0
 13 14  2  0  0  0  0
 14 15  1  0  0  0  0
 15 16  2  0  0  0  0
 16 17  1  0  0  0  0
 17 18  1  0  0  0  0
 17 22  2  0  0  0  0
 18 19  1  0  0  0  0
 18 20  1  0  0  0  0
 18 21  1  0  0  0  0
 22 13  1  0  0  0  0
 23 24  1  0  0  0  0
 24  6  1  0  0  0  0
 25 26  2  0  0  0  0
 26  2  1  0  0  0  0
M  END
>  <CHROM.1>
21.95878566,-24.32980852,96.74173878,64.87233215,0.69660603,39.15472814,-43.90633693
7.56761436,0.89438148,-1.04783937,-0.39702560

>  <Name>
design_6

>  <RI>
0

>  <Rbt.Current_Directory>
/home/ziqiaoxu/icml18-jtnn/VAEdesign

>  <Rbt.Executable>
rbdock ($Id: //depot/dev/client3/rdock/2013.1/src/exe/rbdock.cxx#4 $)

>  <Rbt.Library>
libRbt.so (2013.1, Build901 2013/11/27)

>  <Rbt.Parameter_File>
/export/apps/rDock/src/rDock_2013.1_src//data/scripts/dock.prm

>  <Rbt.Receptor>
/home/ziqiaoxu/icml18-jtnn/VAEdesign/targets/RdRp-SARS-CoV-2/pocket_docking.prm

>  <SCORE>
-17.3089

>  <SCORE.INTER>
-22.0688

>  <SCORE.INTER.CONST>
1

>  <SCORE.INTER.POLAR>
-1.97897

>  <SCORE.INTER.REPUL>
0

>  <SCORE.INTER.ROT>
5

>  <SCORE.INTER.VDW>
-25.7403

>  <SCORE.INTER.norm>
-0.8488

>  <SCORE.INTRA>
4.75342

>  <SCORE.INTRA.DIHEDRAL>
11.4734

>  <SCORE.INTRA.DIHEDRAL.0>
4.62558

>  <SCORE.INTRA.POLAR>
0

>  <SCORE.INTRA.POLAR.0>
0

>  <SCORE.INTRA.REPUL>
0

>  <SCORE.INTRA.REPUL.0>
0

>  <SCORE.INTRA.VDW>
-0.983277

>  <SCORE.INTRA.VDW.0>
-1.05269

>  <SCORE.INTRA.norm>
0.182824

>  <SCORE.RESTR>
0.00646295

>  <SCORE.RESTR.CAVITY>
0.00646295

>  <SCORE.RESTR.norm>
0.000248575

>  <SCORE.SYSTEM>
0

>  <SCORE.SYSTEM.CONST>
0

>  <SCORE.SYSTEM.DIHEDRAL>
0

>  <SCORE.SYSTEM.norm>
0

>  <SCORE.heavy>
26

>  <SCORE.norm>
-0.665728

$$$$
design_2
 OpenBabel05252019093D

 26 28  0  0  0  0  0  0  0  0999 V2000
   40.0301  -46.2692   10.5391 N   0  0  0  0  0  0  0  0  0  0  0  0
   40.3645  -45.8098    9.2442 C   0  0  0  0  0  0  0  0  0  0  0  0
   40.8333  -44.6570    9.1082 O   0  0  0  0  0  0  0  0  0  0  0  0
   40.1764  -46.6496    8.0532 C   0  0  0  0  0  0  0  0  0  0  0  0
   39.3370  -47.7523    8.1550 C   0  0  0  0  0  0  0  0  0  0  0  0
   39.1716  -48.5287    7.0346 C   0  0  0  0  0  0  0  0  0  0  0  0
   39.7990  -48.2570    5.8313 C   0  0  0  0  0  0  0  0  0  0  0  0
   40.6231  -47.1704    5.7420 C   0  0  0  0  0  0  0  0  0  0  0  0
   41.3307  -46.8082    4.5773 N   0  0  0  0  0  0  0  0  0  0  0  0
   42.5078  -46.0654    4.5749 C   0  0  0  0  0  0  0  0  0  0  0  0
   43.1184  -45.5878    5.5578 O   0  0  0  0  0  0  0  0  0  0  0  0
   43.1404  -45.7876    3.2900 N   0  0  0  0  0  0  0  0  0  0  0  0
   44.3480  -45.0203    3.2991 C   0  0  0  0  0  0  0  0  0  0  0  0
   45.5377  -45.8382    3.0401 C   0  0  0  0  0  0  0  0  0  0  0  0
   46.4427  -46.2253    4.0374 C   0  0  0  0  0  0  0  0  0  0  0  0
   47.5403  -47.0157    3.7198 C   0  0  0  0  0  0  0  0  0  0  0  0
   47.7713  -47.4384    2.4348 C   0  0  0  0  0  0  0  0  0  0  0  0
   46.8992  -47.0717    1.4411 C   0  0  0  0  0  0  0  0  0  0  0  0
   45.7829  -46.2688    1.7563 C   0  0  0  0  0  0  0  0  0  0  0  0
   44.9302  -45.9121    0.6217 C   0  0  0  0  0  0  0  0  0  0  0  0
   45.0331  -44.5275    0.2220 N   0  0  0  0  0  0  0  0  0  0  0  0
   46.0002  -44.0988   -0.6617 C   0  0  0  0  0  0  0  0  0  0  0  0
   45.8579  -42.7889   -0.8936 N   0  0  0  0  0  0  0  0  0  0  0  0
   44.8105  -42.3693   -0.1695 C   0  0  0  0  0  0  0  0  0  0  0  0
   44.3560  -43.4463    0.4767 N   0  0  0  0  0  0  0  0  0  0  0  0
   40.8002  -46.3712    6.8758 C   0  0  0  0  0  0  0  0  0  0  0  0
  1  2  1  0  0  0  0
  2  3  2  0  0  0  0
  2  4  1  0  0  0  0
  4  5  2  0  0  0  0
  5  6  1  0  0  0  0
  6  7  2  0  0  0  0
  7  8  1  0  0  0  0
  8  9  1  0  0  0  0
  8 26  2  0  0  0  0
  9 10  1  0  0  0  0
 10 11  2  0  0  0  0
 10 12  1  0  0  0  0
 12 13  1  0  0  0  0
 13 14  1  0  0  0  0
 14 15  2  0  0  0  0
 15 16  1  0  0  0  0
 16 17  2  0  0  0  0
 17 18  1  0  0  0  0
 18 19  2  0  0  0  0
 19 20  1  0  0  0  0
 19 14  1  0  0  0  0
 20 21  1  0  0  0  0
 21 22  1  0  0  0  0
 22 23  2  0  0  0  0
 23 24  1  0  0  0  0
 24 25  2  0  0  0  0
 25 21  1  0  0  0  0
 26  4  1  0  0  0  0
M  END
>  <CHROM.1>
17.32348844,-154.69802187,105.83077391,-104.23768528,70.98330180,86.34329015
43.29825766,-45.88122451,4.18472875,-2.30934522,0.47110888,-0.92878564

>  <Name>
design_2

>  <RI>
0

>  <Rbt.Current_Directory>
/home/ziqiaoxu/icml18-jtnn/VAEdesign

>  <Rbt.Executable>
rbdock ($Id: //depot/dev/client3/rdock/2013.1/src/exe/rbdock.cxx#4 $)

>  <Rbt.Library>
libRbt.so (2013.1, Build901 2013/11/27)

>  <Rbt.Parameter_File>
/export/apps/rDock/src/rDock_2013.1_src//data/scripts/dock.prm

>  <Rbt.Receptor>
/home/ziqiaoxu/icml18-jtnn/VAEdesign/targets/RdRp-SARS-CoV-2/pocket_docking.prm

>  <SCORE>
-24.6092

>  <SCORE.INTER>
-24.7021

>  <SCORE.INTER.CONST>
1

>  <SCORE.INTER.POLAR>
-3.13181

>  <SCORE.INTER.REPUL>
0.0570528

>  <SCORE.INTER.ROT>
6

>  <SCORE.INTER.VDW>
-25.7392

>  <SCORE.INTER.norm>
-0.950079

>  <SCORE.INTRA>
0.0928934

>  <SCORE.INTRA.DIHEDRAL>
1.92785

>  <SCORE.INTRA.DIHEDRAL.0>
6.3805

>  <SCORE.INTRA.POLAR>
0

>  <SCORE.INTRA.POLAR.0>
0

>  <SCORE.INTRA.REPUL>
0

>  <SCORE.INTRA.REPUL.0>
0

>  <SCORE.INTRA.VDW>
-0.871034

>  <SCORE.INTRA.VDW.0>
-1.45518

>  <SCORE.INTRA.norm>
0.00357282

>  <SCORE.RESTR>
0

>  <SCORE.RESTR.CAVITY>
0

>  <SCORE.RESTR.norm>
0

>  <SCORE.SYSTEM>
0

>  <SCORE.SYSTEM.CONST>
0

>  <SCORE.SYSTEM.DIHEDRAL>
0

>  <SCORE.SYSTEM.norm>
0

>  <SCORE.heavy>
26

>  <SCORE.norm>
-0.946507

$$$$
design_7
 OpenBabel05252019093D

 24 26  0  0  0  0  0  0  0  0999 V2000
   38.6723  -49.2411    6.8371 C   0  0  0  0  0  0  0  0  0  0  0  0
   38.9868  -47.9858    6.1224 C   0  0  0  0  0  0  0  0  0  0  0  0
   38.0369  -47.0669    5.7569 C   0  0  0  0  0  0  0  0  0  0  0  0
   38.3642  -45.8892    5.0802 C   0  0  0  0  0  0  0  0  0  0  0  0
   39.6771  -45.6399    4.7704 C   0  0  0  0  0  0  0  0  0  0  0  0
   40.2174  -44.1808    3.9434 S   0  0  0  0  0  0  0  0  0  0  0  0
   40.4499  -44.4377    2.1892 C   0  0  0  0  0  0  0  0  0  0  0  0
   41.6077  -43.6681    1.6840 C   0  0  0  0  0  0  0  0  0  0  0  0
   42.7057  -44.2339    1.6616 O   0  0  0  0  0  0  0  0  0  0  0  0
   41.4803  -42.3231    1.2354 N   0  0  0  0  0  0  0  0  0  0  0  0
   42.4874  -41.4893    0.7282 C   0  0  0  0  0  0  0  0  0  0  0  0
   43.5937  -41.9254    0.0371 C   0  0  0  0  0  0  0  0  0  0  0  0
   44.5473  -41.0833   -0.5224 C   0  0  0  0  0  0  0  0  0  0  0  0
   44.3639  -39.7405   -0.3707 C   0  0  0  0  0  0  0  0  0  0  0  0
   43.2546  -39.2503    0.3247 C   0  0  0  0  0  0  0  0  0  0  0  0
   42.3177  -40.0925    0.8754 C   0  0  0  0  0  0  0  0  0  0  0  0
   41.2534  -39.5862    1.6296 N   0  0  0  0  0  0  0  0  0  0  0  0
   40.9028  -38.2498    1.8897 C   0  0  0  0  0  0  0  0  0  0  0  0
   41.5285  -37.2588    1.4518 O   0  0  0  0  0  0  0  0  0  0  0  0
   39.6986  -37.9559    2.7507 C   0  0  0  0  0  0  0  0  0  0  0  0
   39.7380  -38.2464    4.2014 C   0  0  0  0  0  0  0  0  0  0  0  0
   39.9025  -36.8411    3.7673 C   0  0  0  0  0  0  0  0  0  0  0  0
   40.6589  -46.5638    5.1338 C   0  0  0  0  0  0  0  0  0  0  0  0
   40.2920  -47.7079    5.7972 C   0  0  0  0  0  0  0  0  0  0  0  0
  1  2  1  0  0  0  0
  2  3  2  0  0  0  0
  3  4  1  0  0  0  0
  4  5  2  0  0  0  0
  5  6  1  0  0  0  0
  5 23  1  0  0  0  0
  6  7  1  0  0  0  0
  7  8  1  0  0  0  0
  8  9  2  0  0  0  0
  8 10  1  0  0  0  0
 10 11  1  0  0  0  0
 11 12  2  0  0  0  0
 12 13  1  0  0  0  0
 13 14  2  0  0  0  0
 14 15  1  0  0  0  0
 15 16  2  0  0  0  0
 16 17  1  0  0  0  0
 16 11  1  0  0  0  0
 17 18  1  0  0  0  0
 18 19  2  0  0  0  0
 18 20  1  0  0  0  0
 20 21  1  0  0  0  0
 21 22  1  0  0  0  0
 22 20  1  0  0  0  0
 23 24  2  0  0  0  0
 24  2  1  0  0  0  0
M  END
>  <CHROM.1>
-98.19983295,-143.54439571,92.16874177,30.07576628,-179.46823285,70.14308789
40.98110497,-42.58141592,2.85036738,1.98379742,-0.79533071,2.96948287

>  <Name>
design_7

>  <RI>
0

>  <Rbt.Current_Directory>
/home/ziqiaoxu/icml18-jtnn/VAEdesign

>  <Rbt.Executable>
rbdock ($Id: //depot/dev/client3/rdock/2013.1/src/exe/rbdock.cxx#4 $)

>  <Rbt.Library>
libRbt.so (2013.1, Build901 2013/11/27)

>  <Rbt.Parameter_File>
/export/apps/rDock/src/rDock_2013.1_src//data/scripts/dock.prm

>  <Rbt.Receptor>
/home/ziqiaoxu/icml18-jtnn/VAEdesign/targets/RdRp-SARS-CoV-2/pocket_docking.prm

>  <SCORE>
-22.4599

>  <SCORE.INTER>
-22.1285

>  <SCORE.INTER.CONST>
1

>  <SCORE.INTER.POLAR>
-2.29129

>  <SCORE.INTER.REPUL>
0

>  <SCORE.INTER.ROT>
6

>  <SCORE.INTER.VDW>
-25.7381

>  <SCORE.INTER.norm>
-0.92202

>  <SCORE.INTRA>
-0.331457

>  <SCORE.INTRA.DIHEDRAL>
2.87859

>  <SCORE.INTRA.DIHEDRAL.0>
7.22116

>  <SCORE.INTRA.POLAR>
0

>  <SCORE.INTRA.POLAR.0>
0

>  <SCORE.INTRA.REPUL>
0

>  <SCORE.INTRA.REPUL.0>
0

>  <SCORE.INTRA.VDW>
-1.77075

>  <SCORE.INTRA.VDW.0>
0.301015

>  <SCORE.INTRA.norm>
-0.0138107

>  <SCORE.RESTR>
0

>  <SCORE.RESTR.CAVITY>
0

>  <SCORE.RESTR.norm>
0

>  <SCORE.SYSTEM>
0

>  <SCORE.SYSTEM.CONST>
0

>  <SCORE.SYSTEM.DIHEDRAL>
0

>  <SCORE.SYSTEM.norm>
0

>  <SCORE.heavy>
24

>  <SCORE.norm>
-0.93583

$$$$
design_4
 OpenBabel05252019093D

 22 23  0  0  0  0  0  0  0  0999 V2000
   40.2013  -39.4399    0.8902 N   0  0  0  0  0  0  0  0  0  0  0  0
   41.4932  -39.5548    1.5446 C   0  0  0  0  0  0  0  0  0  0  0  0
   41.6128  -39.0237    2.6588 O   0  0  0  0  0  0  0  0  0  0  0  0
   42.5655  -40.2720    0.8774 C   0  0  0  0  0  0  0  0  0  0  0  0
   43.6392  -39.4823    0.4022 C   0  0  0  0  0  0  0  0  0  0  0  0
   44.6384  -40.0877   -0.3061 C   0  0  0  0  0  0  0  0  0  0  0  0
   44.6186  -41.4269   -0.5596 C   0  0  0  0  0  0  0  0  0  0  0  0
   43.5552  -42.1776   -0.0803 C   0  0  0  0  0  0  0  0  0  0  0  0
   42.4935  -41.6280    0.6543 C   0  0  0  0  0  0  0  0  0  0  0  0
   41.4921  -42.4276    1.2186 N   0  0  0  0  0  0  0  0  0  0  0  0
   41.6444  -43.7650    1.5900 C   0  0  0  0  0  0  0  0  0  0  0  0
   42.7020  -44.3823    1.4376 O   0  0  0  0  0  0  0  0  0  0  0  0
   40.4959  -44.4881    2.1941 C   0  0  0  0  0  0  0  0  0  0  0  0
   40.6773  -44.6740    3.6508 C   0  0  0  0  0  0  0  0  0  0  0  0
   41.7562  -45.6247    4.0280 C   0  0  0  0  0  0  0  0  0  0  0  0
   41.9570  -45.8293    5.8059 S   0  0  0  0  0  0  0  0  0  0  0  0
   40.7320  -46.9068    6.5206 C   0  0  0  0  0  0  0  0  0  0  0  0
   40.3877  -46.7617    7.8686 C   0  0  0  0  0  0  0  0  0  0  0  0
   39.4604  -47.5961    8.4377 C   0  0  0  0  0  0  0  0  0  0  0  0
   38.8283  -48.6028    7.7321 C   0  0  0  0  0  0  0  0  0  0  0  0
   39.1564  -48.7572    6.4083 C   0  0  0  0  0  0  0  0  0  0  0  0
   40.0990  -47.9090    5.8309 C   0  0  0  0  0  0  0  0  0  0  0  0
  1  2  1  0  0  0  0
  2  3  2  0  0  0  0
  2  4  1  0  0  0  0
  4  5  2  0  0  0  0
  5  6  1  0  0  0  0
  6  7  2  0  0  0  0
  7  8  1  0  0  0  0
  8  9  2  0  0  0  0
  9 10  1  0  0  0  0
  9  4  1  0  0  0  0
 10 11  1  0  0  0  0
 11 12  2  0  0  0  0
 11 13  1  0  0  0  0
 13 14  1  0  0  0  0
 14 15  1  0  0  0  0
 15 16  1  0  0  0  0
 16 17  1  0  0  0  0
 17 18  2  0  0  0  0
 18 19  1  0  0  0  0
 19 20  2  0  0  0  0
 20 21  1  0  0  0  0
 21 22  2  0  0  0  0
 22 17  1  0  0  0  0
M  END
>  <CHROM.1>
109.75256852,-148.17695828,-105.43603987,-69.17894619,179.89125136,78.55164162
-154.02720202,41.56234386,-43.74887691,3.25095387,1.15459623,0.83680574,-0.41169342

>  <Name>
design_4

>  <RI>
0

>  <Rbt.Current_Directory>
/home/ziqiaoxu/icml18-jtnn/VAEdesign

>  <Rbt.Executable>
rbdock ($Id: //depot/dev/client3/rdock/2013.1/src/exe/rbdock.cxx#4 $)

>  <Rbt.Library>
libRbt.so (2013.1, Build901 2013/11/27)

>  <Rbt.Parameter_File>
/export/apps/rDock/src/rDock_2013.1_src//data/scripts/dock.prm

>  <Rbt.Receptor>
/home/ziqiaoxu/icml18-jtnn/VAEdesign/targets/RdRp-SARS-CoV-2/pocket_docking.prm

>  <SCORE>
-14.3977

>  <SCORE.INTER>
-18.3545

>  <SCORE.INTER.CONST>
1

>  <SCORE.INTER.POLAR>
-1.47634

>  <SCORE.INTER.REPUL>
0

>  <SCORE.INTER.ROT>
7

>  <SCORE.INTER.VDW>
-25.7349

>  <SCORE.INTER.norm>
-0.834295

>  <SCORE.INTRA>
3.95677

>  <SCORE.INTRA.DIHEDRAL>
13.4641

>  <SCORE.INTRA.DIHEDRAL.0>
5.6176

>  <SCORE.INTRA.POLAR>
0

>  <SCORE.INTRA.POLAR.0>
0

>  <SCORE.INTRA.REPUL>
0

>  <SCORE.INTRA.REPUL.0>
0

>  <SCORE.INTRA.VDW>
-2.77526

>  <SCORE.INTRA.VDW.0>
0.755426

>  <SCORE.INTRA.norm>
0.179853

>  <SCORE.RESTR>
0

>  <SCORE.RESTR.CAVITY>
0

>  <SCORE.RESTR.norm>
0

>  <SCORE.SYSTEM>
0

>  <SCORE.SYSTEM.CONST>
0

>  <SCORE.SYSTEM.DIHEDRAL>
0

>  <SCORE.SYSTEM.norm>
0

>  <SCORE.heavy>
22

>  <SCORE.norm>
-0.654442

$$$$
design_5
 OpenBabel05252019093D

 23 24  0  0  0  0  0  0  0  0999 V2000
   39.8567  -42.8726   10.3322 C   0  0  0  0  0  0  0  0  0  0  0  0
   40.3715  -44.1567   10.4606 O   0  0  0  0  0  0  0  0  0  0  0  0
   40.3320  -45.1666    9.5152 C   0  0  0  0  0  0  0  0  0  0  0  0
   39.4089  -46.1992    9.6531 C   0  0  0  0  0  0  0  0  0  0  0  0
   39.3115  -47.2402    8.7545 C   0  0  0  0  0  0  0  0  0  0  0  0
   40.1470  -47.2989    7.6560 C   0  0  0  0  0  0  0  0  0  0  0  0
   40.1259  -48.2962    6.7073 O   0  0  0  0  0  0  0  0  0  0  0  0
   39.0808  -49.2134    6.5072 C   0  0  0  0  0  0  0  0  0  0  0  0
   41.0588  -46.2769    7.5187 C   0  0  0  0  0  0  0  0  0  0  0  0
   41.9858  -46.3331    6.3427 C   0  0  0  0  0  0  0  0  0  0  0  0
   41.2911  -45.5508    5.2521 C   0  0  0  0  0  0  0  0  0  0  0  0
   41.8376  -45.8079    3.9646 N   0  0  0  0  0  0  0  0  0  0  0  0
   43.1529  -45.5459    3.6088 C   0  0  0  0  0  0  0  0  0  0  0  0
   43.8942  -45.0106    4.5224 O   0  0  0  0  0  0  0  0  0  0  0  0
   43.8097  -45.7901    2.3254 C   0  0  0  0  0  0  0  0  0  0  0  0
   43.0240  -45.7226    1.1618 C   0  0  0  0  0  0  0  0  0  0  0  0
   43.5129  -45.9660   -0.0927 C   0  0  0  0  0  0  0  0  0  0  0  0
   44.8395  -46.2941   -0.2305 C   0  0  0  0  0  0  0  0  0  0  0  0
   45.6419  -46.3702    0.8763 C   0  0  0  0  0  0  0  0  0  0  0  0
   45.1247  -46.1168    2.1582 C   0  0  0  0  0  0  0  0  0  0  0  0
   46.2986  -46.1439    3.4738 S   0  0  0  0  0  0  0  0  0  0  0  0
   47.6048  -47.3515    3.3246 C   0  0  0  0  0  0  0  0  0  0  0  0
   41.1621  -45.2324    8.4144 C   0  0  0  0  0  0  0  0  0  0  0  0
  1  2  1  0  0  0  0
  2  3  1  0  0  0  0
  3  4  2  0  0  0  0
  4  5  1  0  0  0  0
  5  6  2  0  0  0  0
  6  7  1  0  0  0  0
  6  9  1  0  0  0  0
  7  8  1  0  0  0  0
  9 10  1  0  0  0  0
  9 23  2  0  0  0  0
 10 11  1  0  0  0  0
 11 12  1  0  0  0  0
 12 13  1  0  0  0  0
 13 14  2  0  0  0  0
 13 15  1  0  0  0  0
 15 16  2  0  0  0  0
 16 17  1  0  0  0  0
 17 18  2  0  0  0  0
 18 19  1  0  0  0  0
 19 20  2  0  0  0  0
 20 21  1  0  0  0  0
 20 15  1  0  0  0  0
 21 22  1  0  0  0  0
 23  3  1  0  0  0  0
M  END
>  <CHROM.1>
-102.71503116,16.44601297,92.07512207,-163.45914825,-61.17026108,30.50194050
148.01551361,42.49570870,-46.08813206,5.27496196,-2.30606726,-0.51053822
-2.04928235

>  <Name>
design_5

>  <RI>
0

>  <Rbt.Current_Directory>
/home/ziqiaoxu/icml18-jtnn/VAEdesign

>  <Rbt.Executable>
rbdock ($Id: //depot/dev/client3/rdock/2013.1/src/exe/rbdock.cxx#4 $)

>  <Rbt.Library>
libRbt.so (2013.1, Build901 2013/11/27)

>  <Rbt.Parameter_File>
/export/apps/rDock/src/rDock_2013.1_src//data/scripts/dock.prm

>  <Rbt.Receptor>
/home/ziqiaoxu/icml18-jtnn/VAEdesign/targets/RdRp-SARS-CoV-2/pocket_docking.prm

>  <SCORE>
-15.0612

>  <SCORE.INTER>
-17.0255

>  <SCORE.INTER.CONST>
1

>  <SCORE.INTER.POLAR>
-1.08972

>  <SCORE.INTER.REPUL>
0.00192529

>  <SCORE.INTER.ROT>
7

>  <SCORE.INTER.VDW>
-25.7301

>  <SCORE.INTER.norm>
-0.740239

>  <SCORE.INTRA>
1.96428

>  <SCORE.INTRA.DIHEDRAL>
5.0224

>  <SCORE.INTRA.DIHEDRAL.0>
8.12764

>  <SCORE.INTRA.POLAR>
0

>  <SCORE.INTRA.POLAR.0>
0

>  <SCORE.INTRA.REPUL>
-0.102528

>  <SCORE.INTRA.REPUL.0>
0.102528

>  <SCORE.INTRA.VDW>
-0.0342775

>  <SCORE.INTRA.VDW.0>
-0.485643

>  <SCORE.INTRA.norm>
0.0854036

>  <SCORE.RESTR>
0

>  <SCORE.RESTR.CAVITY>
0

>  <SCORE.RESTR.norm>
0

>  <SCORE.SYSTEM>
0

>  <SCORE.SYSTEM.CONST>
0

>  <SCORE.SYSTEM.DIHEDRAL>
0

>  <SCORE.SYSTEM.norm>
0

>  <SCORE.heavy>
23

>  <SCORE.norm>
-0.654836

$$$$
design_10
 OpenBabel05252019093D

 24 25  0  0  0  0  0  0  0  0999 V2000
   47.2484  -46.7885    1.6533 C   0  0  0  0  0  0  0  0  0  0  0  0
   45.8759  -46.4326    1.1766 C   0  0  0  0  0  0  0  0  0  0  0  0
   45.5355  -46.6766   -0.1195 C   0  0  0  0  0  0  0  0  0  0  0  0
   44.2630  -46.3426   -0.5536 C   0  0  0  0  0  0  0  0  0  0  0  0
   43.3605  -45.7744    0.3084 C   0  0  0  0  0  0  0  0  0  0  0  0
   43.6846  -45.5158    1.6326 C   0  0  0  0  0  0  0  0  0  0  0  0
   42.6656  -44.8529    2.4915 C   0  0  0  0  0  0  0  0  0  0  0  0
   44.9537  -45.8467    2.0802 C   0  0  0  0  0  0  0  0  0  0  0  0
   45.3591  -45.6472    3.2933 O   0  0  0  0  0  0  0  0  0  0  0  0
   45.7487  -45.4137    4.5025 C   0  0  0  0  0  0  0  0  0  0  0  0
   44.8533  -44.8834    5.5592 C   0  0  0  0  0  0  0  0  0  0  0  0
   44.0694  -43.9631    5.1987 O   0  0  0  0  0  0  0  0  0  0  0  0
   44.8196  -45.3131    6.8917 N   0  0  0  0  0  0  0  0  0  0  0  0
   43.8905  -44.6969    7.8183 C   0  0  0  0  0  0  0  0  0  0  0  0
   42.6243  -45.4217    7.9208 C   0  0  0  0  0  0  0  0  0  0  0  0
   41.8306  -45.2488    9.0255 C   0  0  0  0  0  0  0  0  0  0  0  0
   40.6254  -45.9099    9.1670 C   0  0  0  0  0  0  0  0  0  0  0  0
   40.2151  -46.7610    8.1737 C   0  0  0  0  0  0  0  0  0  0  0  0
   39.0396  -47.4360    8.2590 O   0  0  0  0  0  0  0  0  0  0  0  0
   38.3529  -48.0897    7.2438 C   0  0  0  0  0  0  0  0  0  0  0  0
   38.1132  -47.0974    6.1036 C   0  0  0  0  0  0  0  0  0  0  0  0
   39.2834  -49.2070    6.7376 C   0  0  0  0  0  0  0  0  0  0  0  0
   40.9929  -46.9420    7.0727 N   0  0  0  0  0  0  0  0  0  0  0  0
   42.1542  -46.2902    6.9611 C   0  0  0  0  0  0  0  0  0  0  0  0
  1  2  1  0  0  0  0
  2  3  2  0  0  0  0
  3  4  1  0  0  0  0
  4  5  2  0  0  0  0
  5  6  1  0  0  0  0
  6  7  1  0  0  0  0
  6  8  2  0  0  0  0
  8  9  1  0  0  0  0
  8  2  1  0  0  0  0
  9 10  1  0  0  0  0
 10 11  1  0  0  0  0
 11 12  2  0  0  0  0
 11 13  1  0  0  0  0
 13 14  1  0  0  0  0
 14 15  1  0  0  0  0
 15 16  2  0  0  0  0
 16 17  1  0  0  0  0
 17 18  2  0  0  0  0
 18 19  1  0  0  0  0
 18 23  1  0  0  0  0
 19 20  1  0  0  0  0
 20 21  1  0  0  0  0
 20 22  1  0  0  0  0
 23 24  2  0  0  0  0
 24 15  1  0  0  0  0
M  END
>  <CHROM.1>
134.39561332,50.14309691,-41.90283319,93.41797611,158.93558483,164.69714703
-55.00239418,42.87494318,-46.11535214,4.97815162,-0.82250076,0.42206740,1.35214402

>  <Name>
design_10

>  <RI>
0

>  <Rbt.Current_Directory>
/home/ziqiaoxu/icml18-jtnn/VAEdesign

>  <Rbt.Executable>
rbdock ($Id: //depot/dev/client3/rdock/2013.1/src/exe/rbdock.cxx#4 $)

>  <Rbt.Library>
libRbt.so (2013.1, Build901 2013/11/27)

>  <Rbt.Parameter_File>
/export/apps/rDock/src/rDock_2013.1_src//data/scripts/dock.prm

>  <Rbt.Receptor>
/home/ziqiaoxu/icml18-jtnn/VAEdesign/targets/RdRp-SARS-CoV-2/pocket_docking.prm

>  <SCORE>
-18.5582

>  <SCORE.INTER>
-16.4447

>  <SCORE.INTER.CONST>
1

>  <SCORE.INTER.POLAR>
-0.927778

>  <SCORE.INTER.REPUL>
0.00794974

>  <SCORE.INTER.ROT>
7

>  <SCORE.INTER.VDW>
-25.73

>  <SCORE.INTER.norm>
-0.685197

>  <SCORE.INTRA>
-2.11344

>  <SCORE.INTRA.DIHEDRAL>
-8.50121

>  <SCORE.INTRA.DIHEDRAL.0>
15.18

>  <SCORE.INTRA.POLAR>
0

>  <SCORE.INTRA.POLAR.0>
0

>  <SCORE.INTRA.REPUL>
0

>  <SCORE.INTRA.REPUL.0>
0

>  <SCORE.INTRA.VDW>
2.13717

>  <SCORE.INTRA.VDW.0>
-2.55885

>  <SCORE.INTRA.norm>
-0.0880598

>  <SCORE.RESTR>
0

>  <SCORE.RESTR.CAVITY>
0

>  <SCORE.RESTR.norm>
0

>  <SCORE.SYSTEM>
0

>  <SCORE.SYSTEM.CONST>
0

>  <SCORE.SYSTEM.DIHEDRAL>
0

>  <SCORE.SYSTEM.norm>
0

>  <SCORE.heavy>
24

>  <SCORE.norm>
-0.773256

$$$$
design_15
 OpenBabel05252019093D

 26 27  0  0  0  0  0  0  0  0999 V2000
   46.8940  -41.1040   -0.1875 C   0  0  0  0  0  0  0  0  0  0  0  0
   46.0856  -40.8560   -1.4496 C   0  0  0  0  0  0  0  0  0  0  0  0
   46.9787  -40.5509   -2.6166 C   0  0  0  0  0  0  0  0  0  0  0  0
   45.1009  -39.7617   -1.1445 C   0  0  0  0  0  0  0  0  0  0  0  0
   44.0697  -40.1647   -0.1818 C   0  0  0  0  0  0  0  0  0  0  0  0
   43.7749  -39.3459    0.7384 O   0  0  0  0  0  0  0  0  0  0  0  0
   43.3842  -41.3952   -0.2062 N   0  0  0  0  0  0  0  0  0  0  0  0
   42.3801  -41.7749    0.7430 C   0  0  0  0  0  0  0  0  0  0  0  0
   42.5902  -43.1378    1.2864 C   0  0  0  0  0  0  0  0  0  0  0  0
   43.2069  -44.1237    0.5545 C   0  0  0  0  0  0  0  0  0  0  0  0
   43.3944  -45.3948    1.0706 C   0  0  0  0  0  0  0  0  0  0  0  0
   42.9656  -45.7076    2.3380 C   0  0  0  0  0  0  0  0  0  0  0  0
   42.3419  -44.7055    3.0739 C   0  0  0  0  0  0  0  0  0  0  0  0
   41.8797  -45.0070    4.4380 C   0  0  0  0  0  0  0  0  0  0  0  0
   42.0169  -44.0849    5.2696 O   0  0  0  0  0  0  0  0  0  0  0  0
   41.3291  -46.2703    4.7258 N   0  0  0  0  0  0  0  0  0  0  0  0
   40.8600  -46.5988    6.0239 C   0  0  0  0  0  0  0  0  0  0  0  0
   39.9215  -47.6496    6.1072 C   0  0  0  0  0  0  0  0  0  0  0  0
   39.3953  -48.0191    7.3087 C   0  0  0  0  0  0  0  0  0  0  0  0
   39.7612  -47.3807    8.4806 C   0  0  0  0  0  0  0  0  0  0  0  0
   40.6707  -46.3538    8.4436 C   0  0  0  0  0  0  0  0  0  0  0  0
   41.0918  -45.6448    9.6399 C   0  0  0  0  0  0  0  0  0  0  0  0
   40.3594  -45.8548   10.8483 N   0  0  0  0  0  0  0  0  0  0  0  0
   42.0603  -44.8629    9.6610 O   0  0  0  0  0  0  0  0  0  0  0  0
   41.1906  -45.9995    7.1949 C   0  0  0  0  0  0  0  0  0  0  0  0
   42.1488  -43.4460    2.5812 C   0  0  0  0  0  0  0  0  0  0  0  0
  1  2  1  0  0  0  0
  2  3  1  0  0  0  0
  2  4  1  0  0  0  0
  4  5  1  0  0  0  0
  5  6  2  0  0  0  0
  5  7  1  0  0  0  0
  7  8  1  0  0  0  0
  8  9  1  0  0  0  0
  9 10  2  0  0  0  0
 10 11  1  0  0  0  0
 11 12  2  0  0  0  0
 12 13  1  0  0  0  0
 13 14  1  0  0  0  0
 13 26  2  0  0  0  0
 14 15  2  0  0  0  0
 14 16  1  0  0  0  0
 16 17  1  0  0  0  0
 17 18  2  0  0  0  0
 18 19  1  0  0  0  0
 19 20  2  0  0  0  0
 20 21  1  0  0  0  0
 21 22  1  0  0  0  0
 21 25  2  0  0  0  0
 22 23  1  0  0  0  0
 22 24  2  0  0  0  0
 25 17  1  0  0  0  0
 26  9  1  0  0  0  0
M  END
>  <CHROM.1>
-67.65473917,136.21784720,-131.99047798,-29.47182230,142.45302573,157.94153750
-11.73356658,42.58283889,-43.96614039,3.62738746,-0.59855352,1.08676435,1.20390165

>  <Name>
design_15

>  <RI>
0

>  <Rbt.Current_Directory>
/home/ziqiaoxu/icml18-jtnn/VAEdesign

>  <Rbt.Executable>
rbdock ($Id: //depot/dev/client3/rdock/2013.1/src/exe/rbdock.cxx#4 $)

>  <Rbt.Library>
libRbt.so (2013.1, Build901 2013/11/27)

>  <Rbt.Parameter_File>
/export/apps/rDock/src/rDock_2013.1_src//data/scripts/dock.prm

>  <Rbt.Receptor>
/home/ziqiaoxu/icml18-jtnn/VAEdesign/targets/RdRp-SARS-CoV-2/pocket_docking.prm

>  <SCORE>
-24.1791

>  <SCORE.INTER>
-23.0466

>  <SCORE.INTER.CONST>
1

>  <SCORE.INTER.POLAR>
-2.9348

>  <SCORE.INTER.REPUL>
0.052344

>  <SCORE.INTER.ROT>
7

>  <SCORE.INTER.VDW>
-25.73

>  <SCORE.INTER.norm>
-0.886407

>  <SCORE.INTRA>
-1.13249

>  <SCORE.INTRA.DIHEDRAL>
3.67819

>  <SCORE.INTRA.DIHEDRAL.0>
6.78076

>  <SCORE.INTRA.POLAR>
0

>  <SCORE.INTRA.POLAR.0>
0

>  <SCORE.INTRA.REPUL>
0

>  <SCORE.INTRA.REPUL.0>
0

>  <SCORE.INTRA.VDW>
-2.97159

>  <SCORE.INTRA.VDW.0>
1.85021

>  <SCORE.INTRA.norm>
-0.0435574

>  <SCORE.RESTR>
0

>  <SCORE.RESTR.CAVITY>
0

>  <SCORE.RESTR.norm>
0

>  <SCORE.SYSTEM>
0

>  <SCORE.SYSTEM.CONST>
0

>  <SCORE.SYSTEM.DIHEDRAL>
0

>  <SCORE.SYSTEM.norm>
0

>  <SCORE.heavy>
26

>  <SCORE.norm>
-0.929964

$$$$
design_5
 OpenBabel05252019093D

 23 25  0  0  0  0  0  0  0  0999 V2000
   44.4778  -43.8481    9.2671 C   0  0  0  0  0  0  0  0  0  0  0  0
   43.5998  -44.6764    8.3944 C   0  0  0  0  0  0  0  0  0  0  0  0
   42.4945  -45.3654    8.6474 N   0  0  0  0  0  0  0  0  0  0  0  0
   42.0117  -45.9943    7.5952 N   0  0  0  0  0  0  0  0  0  0  0  0
   40.8277  -46.7802    7.5043 C   0  0  0  0  0  0  0  0  0  0  0  0
   39.9471  -47.0185    8.5308 C   0  0  0  0  0  0  0  0  0  0  0  0
   38.8328  -47.8532    8.3315 C   0  0  0  0  0  0  0  0  0  0  0  0
   38.5752  -48.4536    7.1278 C   0  0  0  0  0  0  0  0  0  0  0  0
   39.4734  -48.2005    6.1062 C   0  0  0  0  0  0  0  0  0  0  0  0
   40.5549  -47.4025    6.2776 C   0  0  0  0  0  0  0  0  0  0  0  0
   42.8635  -45.6992    6.5771 C   0  0  0  0  0  0  0  0  0  0  0  0
   43.8676  -44.8867    7.0140 C   0  0  0  0  0  0  0  0  0  0  0  0
   44.9511  -44.1908    6.2717 C   0  0  0  0  0  0  0  0  0  0  0  0
   45.8447  -45.1892    5.6829 N   0  0  0  0  0  0  0  0  0  0  0  0
   45.4387  -45.5004    4.3658 C   0  0  0  0  0  0  0  0  0  0  0  0
   46.5519  -46.1712    3.5866 C   0  0  0  0  0  0  0  0  0  0  0  0
   45.9320  -46.6017    2.2727 C   0  0  0  0  0  0  0  0  0  0  0  0
   45.4332  -45.4508    1.5091 N   0  0  0  0  0  0  0  0  0  0  0  0
   46.0204  -45.5363    0.1922 C   0  0  0  0  0  0  0  0  0  0  0  0
   45.4908  -46.6989   -0.6023 C   0  0  0  0  0  0  0  0  0  0  0  0
   44.1206  -46.6175   -0.8145 O   0  0  0  0  0  0  0  0  0  0  0  0
   43.4951  -45.7100   -0.0026 C   0  0  0  0  0  0  0  0  0  0  0  0
   43.9850  -45.6739    1.4131 C   0  0  0  0  0  0  0  0  0  0  0  0
  1  2  1  0  0  0  0
  2  3  2  0  0  0  0
  3  4  1  0  0  0  0
  4  5  1  0  0  0  0
  4 11  1  0  0  0  0
  5  6  2  0  0  0  0
  6  7  1  0  0  0  0
  7  8  2  0  0  0  0
  8  9  1  0  0  0  0
  9 10  2  0  0  0  0
 10  5  1  0  0  0  0
 11 12  2  0  0  0  0
 12 13  1  0  0  0  0
 12  2  1  0  0  0  0
 13 14  1  0  0  0  0
 14 15  1  0  0  0  0
 15 16  1  0  0  0  0
 16 17  1  0  0  0  0
 17 18  1  0  0  0  0
 18 19  1  0  0  0  0
 19 20  1  0  0  0  0
 20 21  1  0  0  0  0
 21 22  1  0  0  0  0
 22 23  1  0  0  0  0
 23 18  1  0  0  0  0
M  END
>  <CHROM.1>
0.56995306,122.73725994,92.50621118,162.03838956,173.04711359,61.39835306
126.91756827,43.34030872,-46.04815177,4.89973735,-2.17447930,-0.47813659
-1.80299568

>  <Name>
design_5

>  <RI>
0

>  <Rbt.Current_Directory>
/home/ziqiaoxu/icml18-jtnn/VAEdesign

>  <Rbt.Executable>
rbdock ($Id: //depot/dev/client3/rdock/2013.1/src/exe/rbdock.cxx#4 $)

>  <Rbt.Library>
libRbt.so (2013.1, Build901 2013/11/27)

>  <Rbt.Parameter_File>
/export/apps/rDock/src/rDock_2013.1_src//data/scripts/dock.prm

>  <Rbt.Receptor>
/home/ziqiaoxu/icml18-jtnn/VAEdesign/targets/RdRp-SARS-CoV-2/pocket_docking.prm

>  <SCORE>
-18.4094

>  <SCORE.INTER>
-16.3707

>  <SCORE.INTER.CONST>
1

>  <SCORE.INTER.POLAR>
-0.894427

>  <SCORE.INTER.REPUL>
0

>  <SCORE.INTER.ROT>
7

>  <SCORE.INTER.VDW>
-25.7296

>  <SCORE.INTER.norm>
-0.711769

>  <SCORE.INTRA>
-2.03874

>  <SCORE.INTRA.DIHEDRAL>
0.548767

>  <SCORE.INTRA.DIHEDRAL.0>
5.21524

>  <SCORE.INTRA.POLAR>
0

>  <SCORE.INTRA.POLAR.0>
0

>  <SCORE.INTRA.REPUL>
0

>  <SCORE.INTRA.REPUL.0>
0

>  <SCORE.INTRA.VDW>
-2.31312

>  <SCORE.INTRA.VDW.0>
1.6006

>  <SCORE.INTRA.norm>
-0.0886407

>  <SCORE.RESTR>
0

>  <SCORE.RESTR.CAVITY>
0

>  <SCORE.RESTR.norm>
0

>  <SCORE.SYSTEM>
0

>  <SCORE.SYSTEM.CONST>
0

>  <SCORE.SYSTEM.DIHEDRAL>
0

>  <SCORE.SYSTEM.norm>
0

>  <SCORE.heavy>
23

>  <SCORE.norm>
-0.800409

$$$$
design_19
 OpenBabel05252019093D

 24 26  0  0  0  0  0  0  0  0999 V2000
   45.1291  -46.5130   -0.3409 C   0  0  0  0  0  0  0  0  0  0  0  0
   44.9710  -45.0526   -0.2709 C   0  0  0  0  0  0  0  0  0  0  0  0
   45.8593  -44.3161   -0.8264 O   0  0  0  0  0  0  0  0  0  0  0  0
   43.8736  -44.3691    0.3866 C   0  0  0  0  0  0  0  0  0  0  0  0
   42.8546  -45.0106    1.1091 C   0  0  0  0  0  0  0  0  0  0  0  0
   42.0008  -44.1204    1.5901 N   0  0  0  0  0  0  0  0  0  0  0  0
   40.8285  -44.3983    2.3814 C   0  0  0  0  0  0  0  0  0  0  0  0
   41.1618  -44.7360    3.7816 C   0  0  0  0  0  0  0  0  0  0  0  0
   41.4618  -43.8196    4.5733 O   0  0  0  0  0  0  0  0  0  0  0  0
   41.1467  -46.0742    4.2375 N   0  0  0  0  0  0  0  0  0  0  0  0
   41.4788  -46.3515    5.6096 C   0  0  0  0  0  0  0  0  0  0  0  0
   40.5598  -47.1806    6.3503 C   0  0  0  0  0  0  0  0  0  0  0  0
   39.8776  -48.2339    5.8363 C   0  0  0  0  0  0  0  0  0  0  0  0
   39.0000  -49.0028    6.5991 C   0  0  0  0  0  0  0  0  0  0  0  0
   38.8049  -48.6990    7.9219 C   0  0  0  0  0  0  0  0  0  0  0  0
   39.4841  -47.6323    8.4771 C   0  0  0  0  0  0  0  0  0  0  0  0
   40.3457  -46.8887    7.7011 C   0  0  0  0  0  0  0  0  0  0  0  0
   41.1820  -45.5510    8.4438 Cl  0  0  0  0  0  0  0  0  0  0  0  0
   42.3800  -42.8859    1.2344 C   0  0  0  0  0  0  0  0  0  0  0  0
   41.8844  -41.6209    1.4482 C   0  0  0  0  0  0  0  0  0  0  0  0
   42.4980  -40.4925    0.9483 C   0  0  0  0  0  0  0  0  0  0  0  0
   43.6466  -40.6542    0.2109 C   0  0  0  0  0  0  0  0  0  0  0  0
   44.1738  -41.9051   -0.0249 C   0  0  0  0  0  0  0  0  0  0  0  0
   43.5501  -43.0328    0.4817 C   0  0  0  0  0  0  0  0  0  0  0  0
  1  2  1  0  0  0  0
  2  3  2  0  0  0  0
  2  4  1  0  0  0  0
  4  5  2  0  0  0  0
  5  6  1  0  0  0  0
  6  7  1  0  0  0  0
  6 19  1  0  0  0  0
  7  8  1  0  0  0  0
  8  9  2  0  0  0  0
  8 10  1  0  0  0  0
 10 11  1  0  0  0  0
 11 12  1  0  0  0  0
 12 13  2  0  0  0  0
 13 14  1  0  0  0  0
 14 15  2  0  0  0  0
 15 16  1  0  0  0  0
 16 17  2  0  0  0  0
 17 18  1  0  0  0  0
 17 12  1  0  0  0  0
 19 20  2  0  0  0  0
 20 21  1  0  0  0  0
 21 22  2  0  0  0  0
 22 23  1  0  0  0  0
 23 24  2  0  0  0  0
 24  4  1  0  0  0  0
 24 19  1  0  0  0  0
M  END
>  <CHROM.1>
3.75979407,75.91101822,77.53260205,129.54215955,36.51080353,41.98039150,-44.98385210
3.55365352,-0.59015760,-1.04978178,2.99467206

>  <Name>
design_19

>  <RI>
0

>  <Rbt.Current_Directory>
/home/ziqiaoxu/icml18-jtnn/VAEdesign

>  <Rbt.Executable>
rbdock ($Id: //depot/dev/client3/rdock/2013.1/src/exe/rbdock.cxx#4 $)

>  <Rbt.Library>
libRbt.so (2013.1, Build901 2013/11/27)

>  <Rbt.Parameter_File>
/export/apps/rDock/src/rDock_2013.1_src//data/scripts/dock.prm

>  <Rbt.Receptor>
/home/ziqiaoxu/icml18-jtnn/VAEdesign/targets/RdRp-SARS-CoV-2/pocket_docking.prm

>  <SCORE>
-19.6013

>  <SCORE.INTER>
-19.0346

>  <SCORE.INTER.CONST>
1

>  <SCORE.INTER.POLAR>
-1.08972

>  <SCORE.INTER.REPUL>
0

>  <SCORE.INTER.ROT>
5

>  <SCORE.INTER.VDW>
-25.7295

>  <SCORE.INTER.norm>
-0.793107

>  <SCORE.INTRA>
-0.566738

>  <SCORE.INTRA.DIHEDRAL>
0.0480587

>  <SCORE.INTRA.DIHEDRAL.0>
5.65616

>  <SCORE.INTRA.POLAR>
0

>  <SCORE.INTRA.POLAR.0>
0

>  <SCORE.INTRA.REPUL>
0

>  <SCORE.INTRA.REPUL.0>
0

>  <SCORE.INTRA.VDW>
-0.590767

>  <SCORE.INTRA.VDW.0>
-1.2252

>  <SCORE.INTRA.norm>
-0.0236141

>  <SCORE.RESTR>
0

>  <SCORE.RESTR.CAVITY>
0

>  <SCORE.RESTR.norm>
0

>  <SCORE.SYSTEM>
0

>  <SCORE.SYSTEM.CONST>
0

>  <SCORE.SYSTEM.DIHEDRAL>
0

>  <SCORE.SYSTEM.norm>
0

>  <SCORE.heavy>
24

>  <SCORE.norm>
-0.816721

$$$$
design_6
 OpenBabel05252019093D

 26 28  0  0  0  0  0  0  0  0999 V2000
   50.0629  -45.0263    3.7218 C   0  0  0  0  0  0  0  0  0  0  0  0
   49.0833  -45.9996    3.1743 C   0  0  0  0  0  0  0  0  0  0  0  0
   49.4304  -46.9920    2.2894 C   0  0  0  0  0  0  0  0  0  0  0  0
   48.5228  -47.8916    1.7840 C   0  0  0  0  0  0  0  0  0  0  0  0
   47.2082  -47.7873    2.1873 C   0  0  0  0  0  0  0  0  0  0  0  0
   46.7995  -46.7974    3.0851 C   0  0  0  0  0  0  0  0  0  0  0  0
   47.7615  -45.9163    3.5624 C   0  0  0  0  0  0  0  0  0  0  0  0
   47.3574  -44.8758    4.4999 C   0  0  0  0  0  0  0  0  0  0  0  0
   47.7347  -43.6932    4.3022 O   0  0  0  0  0  0  0  0  0  0  0  0
   46.5486  -45.1374    5.6388 N   0  0  0  0  0  0  0  0  0  0  0  0
   46.1110  -44.1780    6.5785 C   0  0  0  0  0  0  0  0  0  0  0  0
   44.8775  -44.5247    7.3486 C   0  0  0  0  0  0  0  0  0  0  0  0
   44.8401  -44.0691    8.5236 O   0  0  0  0  0  0  0  0  0  0  0  0
   43.8138  -45.2930    6.8636 N   0  0  0  0  0  0  0  0  0  0  0  0
   42.6548  -45.5843    7.6129 C   0  0  0  0  0  0  0  0  0  0  0  0
   42.4933  -44.9245    8.8401 C   0  0  0  0  0  0  0  0  0  0  0  0
   41.4229  -45.1512    9.6587 C   0  0  0  0  0  0  0  0  0  0  0  0
   40.4399  -46.0498    9.3124 C   0  0  0  0  0  0  0  0  0  0  0  0
   39.3221  -46.4416    9.9199 N   0  0  0  0  0  0  0  0  0  0  0  0
   38.7614  -47.3246    9.1341 N   0  0  0  0  0  0  0  0  0  0  0  0
   39.4982  -47.5244    8.0055 C   0  0  0  0  0  0  0  0  0  0  0  0
   39.1319  -48.4430    6.9489 C   0  0  0  0  0  0  0  0  0  0  0  0
   39.7567  -48.3851    5.6749 N   0  0  0  0  0  0  0  0  0  0  0  0
   38.2468  -49.3154    7.1425 O   0  0  0  0  0  0  0  0  0  0  0  0
   40.5905  -46.6956    8.1206 C   0  0  0  0  0  0  0  0  0  0  0  0
   41.6836  -46.4755    7.2672 C   0  0  0  0  0  0  0  0  0  0  0  0
  1  2  1  0  0  0  0
  2  3  2  0  0  0  0
  3  4  1  0  0  0  0
  4  5  2  0  0  0  0
  5  6  1  0  0  0  0
  6  7  2  0  0  0  0
  7  8  1  0  0  0  0
  7  2  1  0  0  0  0
  8  9  2  0  0  0  0
  8 10  1  0  0  0  0
 10 11  1  0  0  0  0
 11 12  1  0  0  0  0
 12 13  2  0  0  0  0
 12 14  1  0  0  0  0
 14 15  1  0  0  0  0
 15 16  2  0  0  0  0
 16 17  1  0  0  0  0
 17 18  2  0  0  0  0
 18 19  1  0  0  0  0
 19 20  1  0  0  0  0
 20 21  2  0  0  0  0
 21 22  1  0  0  0  0
 21 25  1  0  0  0  0
 22 23  1  0  0  0  0
 22 24  2  0  0  0  0
 25 26  2  0  0  0  0
 25 18  1  0  0  0  0
 26 15  1  0  0  0  0
M  END
>  <CHROM.1>
47.61319955,156.40859156,147.81799402,8.44689721,165.13623984,43.98514812
-46.16412245,6.21342752,-0.28935648,0.45435832,0.84011024

>  <Name>
design_6

>  <RI>
0

>  <Rbt.Current_Directory>
/home/ziqiaoxu/icml18-jtnn/VAEdesign

>  <Rbt.Executable>
rbdock ($Id: //depot/dev/client3/rdock/2013.1/src/exe/rbdock.cxx#4 $)

>  <Rbt.Library>
libRbt.so (2013.1, Build901 2013/11/27)

>  <Rbt.Parameter_File>
/export/apps/rDock/src/rDock_2013.1_src//data/scripts/dock.prm

>  <Rbt.Receptor>
/home/ziqiaoxu/icml18-jtnn/VAEdesign/targets/RdRp-SARS-CoV-2/pocket_docking.prm

>  <SCORE>
-23.8453

>  <SCORE.INTER>
-25.3897

>  <SCORE.INTER.CONST>
1

>  <SCORE.INTER.POLAR>
-2.95964

>  <SCORE.INTER.REPUL>
0

>  <SCORE.INTER.ROT>
5

>  <SCORE.INTER.VDW>
-25.7269

>  <SCORE.INTER.norm>
-0.976525

>  <SCORE.INTRA>
1.54433

>  <SCORE.INTRA.DIHEDRAL>
1.28132

>  <SCORE.INTRA.DIHEDRAL.0>
9.28358

>  <SCORE.INTRA.POLAR>
0

>  <SCORE.INTRA.POLAR.0>
0

>  <SCORE.INTRA.REPUL>
-0.0111132

>  <SCORE.INTRA.REPUL.0>
0.0111132

>  <SCORE.INTRA.VDW>
0.959236

>  <SCORE.INTRA.VDW.0>
0.127912

>  <SCORE.INTRA.norm>
0.0593972

>  <SCORE.RESTR>
0

>  <SCORE.RESTR.CAVITY>
0

>  <SCORE.RESTR.norm>
0

>  <SCORE.SYSTEM>
0

>  <SCORE.SYSTEM.CONST>
0

>  <SCORE.SYSTEM.DIHEDRAL>
0

>  <SCORE.SYSTEM.norm>
0

>  <SCORE.heavy>
26

>  <SCORE.norm>
-0.917128

$$$$
design_8
 OpenBabel05252019093D

 25 27  0  0  0  0  0  0  0  0999 V2000
   43.8203  -44.1211    9.2983 C   0  0  0  0  0  0  0  0  0  0  0  0
   42.8194  -44.2258    8.3337 O   0  0  0  0  0  0  0  0  0  0  0  0
   41.8404  -45.1794    8.2980 C   0  0  0  0  0  0  0  0  0  0  0  0
   41.8948  -46.0547    7.2050 C   0  0  0  0  0  0  0  0  0  0  0  0
   40.9662  -47.0385    7.0777 C   0  0  0  0  0  0  0  0  0  0  0  0
   39.9880  -47.1624    8.0197 C   0  0  0  0  0  0  0  0  0  0  0  0
   38.9788  -48.2331    7.8793 C   0  0  0  0  0  0  0  0  0  0  0  0
   39.9314  -46.3045    9.0945 C   0  0  0  0  0  0  0  0  0  0  0  0
   40.8793  -45.2806    9.2476 C   0  0  0  0  0  0  0  0  0  0  0  0
   40.7657  -44.4077   10.4031 C   0  0  0  0  0  0  0  0  0  0  0  0
   39.6281  -43.4592   10.4537 C   0  0  0  0  0  0  0  0  0  0  0  0
   39.6073  -42.5768    9.3045 N   0  0  0  0  0  0  0  0  0  0  0  0
   39.8716  -41.2035    9.4078 C   0  0  0  0  0  0  0  0  0  0  0  0
   40.1465  -40.7166   10.5351 O   0  0  0  0  0  0  0  0  0  0  0  0
   39.8272  -40.3473    8.2134 C   0  0  0  0  0  0  0  0  0  0  0  0
   40.3671  -39.0563    8.2688 C   0  0  0  0  0  0  0  0  0  0  0  0
   40.3572  -38.2053    7.1857 C   0  0  0  0  0  0  0  0  0  0  0  0
   39.8074  -38.5923    5.9813 C   0  0  0  0  0  0  0  0  0  0  0  0
   39.8022  -37.7055    4.8671 N   0  0  0  0  0  0  0  0  0  0  0  0
   40.3560  -36.4834    4.8290 C   0  0  0  0  0  0  0  0  0  0  0  0
   40.1528  -35.9141    3.5814 C   0  0  0  0  0  0  0  0  0  0  0  0
   39.4666  -36.8342    2.8919 N   0  0  0  0  0  0  0  0  0  0  0  0
   39.2697  -37.8854    3.6698 N   0  0  0  0  0  0  0  0  0  0  0  0
   39.2747  -39.8607    5.9195 C   0  0  0  0  0  0  0  0  0  0  0  0
   39.2825  -40.7306    7.0197 C   0  0  0  0  0  0  0  0  0  0  0  0
  1  2  1  0  0  0  0
  2  3  1  0  0  0  0
  3  4  2  0  0  0  0
  4  5  1  0  0  0  0
  5  6  2  0  0  0  0
  6  7  1  0  0  0  0
  6  8  1  0  0  0  0
  8  9  2  0  0  0  0
  9 10  1  0  0  0  0
  9  3  1  0  0  0  0
 10 11  1  0  0  0  0
 11 12  1  0  0  0  0
 12 13  1  0  0  0  0
 13 14  2  0  0  0  0
 13 15  1  0  0  0  0
 15 16  2  0  0  0  0
 16 17  1  0  0  0  0
 17 18  2  0  0  0  0
 18 19  1  0  0  0  0
 18 24  1  0  0  0  0
 19 20  1  0  0  0  0
 20 21  2  0  0  0  0
 21 22  1  0  0  0  0
 22 23  2  0  0  0  0
 23 19  1  0  0  0  0
 24 25  2  0  0  0  0
 25 15  1  0  0  0  0
M  END
>  <CHROM.1>
-114.87555937,110.36889613,-57.44452344,-111.29690237,-166.24591097,3.36782933
40.38253651,-41.92390817,7.50784009,-0.55150651,-1.44194599,0.58691239

>  <Name>
design_8

>  <RI>
0

>  <Rbt.Current_Directory>
/home/ziqiaoxu/icml18-jtnn/VAEdesign

>  <Rbt.Executable>
rbdock ($Id: //depot/dev/client3/rdock/2013.1/src/exe/rbdock.cxx#4 $)

>  <Rbt.Library>
libRbt.so (2013.1, Build901 2013/11/27)

>  <Rbt.Parameter_File>
/export/apps/rDock/src/rDock_2013.1_src//data/scripts/dock.prm

>  <Rbt.Receptor>
/home/ziqiaoxu/icml18-jtnn/VAEdesign/targets/RdRp-SARS-CoV-2/pocket_docking.prm

>  <SCORE>
-20.0814

>  <SCORE.INTER>
-15.9972

>  <SCORE.INTER.CONST>
1

>  <SCORE.INTER.POLAR>
-0.492003

>  <SCORE.INTER.REPUL>
0

>  <SCORE.INTER.ROT>
6

>  <SCORE.INTER.VDW>
-25.7244

>  <SCORE.INTER.norm>
-0.639888

>  <SCORE.INTRA>
-4.09469

>  <SCORE.INTRA.DIHEDRAL>
2.12782

>  <SCORE.INTRA.DIHEDRAL.0>
4.53582

>  <SCORE.INTRA.POLAR>
0

>  <SCORE.INTRA.POLAR.0>
0

>  <SCORE.INTRA.REPUL>
0

>  <SCORE.INTRA.REPUL.0>
0

>  <SCORE.INTRA.VDW>
-5.15861

>  <SCORE.INTRA.VDW.0>
3.92721

>  <SCORE.INTRA.norm>
-0.163788

>  <SCORE.RESTR>
0.0105059

>  <SCORE.RESTR.CAVITY>
0.0105059

>  <SCORE.RESTR.norm>
0.000420237

>  <SCORE.SYSTEM>
0

>  <SCORE.SYSTEM.CONST>
0

>  <SCORE.SYSTEM.DIHEDRAL>
0

>  <SCORE.SYSTEM.norm>
0

>  <SCORE.heavy>
25

>  <SCORE.norm>
-0.803256

$$$$
design_7
 OpenBabel05252019093D

 27 30  0  0  0  0  0  0  0  0999 V2000
   43.0089  -41.2459    0.8157 C   0  0  0  0  0  0  0  0  0  0  0  0
   44.0055  -40.5356    0.0109 C   0  0  0  0  0  0  0  0  0  0  0  0
   43.8474  -39.1485   -0.1431 C   0  0  0  0  0  0  0  0  0  0  0  0
   44.7340  -38.3721   -0.8413 C   0  0  0  0  0  0  0  0  0  0  0  0
   45.8149  -39.0209   -1.4012 C   0  0  0  0  0  0  0  0  0  0  0  0
   45.9956  -40.3639   -1.2702 C   0  0  0  0  0  0  0  0  0  0  0  0
   45.0788  -41.1539   -0.5515 C   0  0  0  0  0  0  0  0  0  0  0  0
   45.3356  -42.5812   -0.5176 C   0  0  0  0  0  0  0  0  0  0  0  0
   44.4815  -43.5102    0.0289 N   0  0  0  0  0  0  0  0  0  0  0  0
   44.9353  -44.7387   -0.1052 C   0  0  0  0  0  0  0  0  0  0  0  0
   44.2552  -45.9718    0.3984 C   0  0  0  0  0  0  0  0  0  0  0  0
   42.9955  -45.6519    1.1113 C   0  0  0  0  0  0  0  0  0  0  0  0
   43.3133  -45.3782    2.5705 C   0  0  0  0  0  0  0  0  0  0  0  0
   44.2864  -44.6420    2.7636 O   0  0  0  0  0  0  0  0  0  0  0  0
   42.5018  -45.9645    3.5693 N   0  0  0  0  0  0  0  0  0  0  0  0
   42.6593  -45.8130    4.9603 C   0  0  0  0  0  0  0  0  0  0  0  0
   43.7270  -45.1197    5.5154 C   0  0  0  0  0  0  0  0  0  0  0  0
   43.8660  -44.9803    6.8985 C   0  0  0  0  0  0  0  0  0  0  0  0
   42.9244  -45.5439    7.6872 C   0  0  0  0  0  0  0  0  0  0  0  0
   41.8422  -46.2445    7.1776 C   0  0  0  0  0  0  0  0  0  0  0  0
   40.9325  -46.7862    8.0116 N   0  0  0  0  0  0  0  0  0  0  0  0
   39.8695  -47.4727    7.5560 C   0  0  0  0  0  0  0  0  0  0  0  0
   39.6880  -47.6376    6.2060 C   0  0  0  0  0  0  0  0  0  0  0  0
   40.6348  -47.0742    5.3281 C   0  0  0  0  0  0  0  0  0  0  0  0
   41.7117  -46.3774    5.8240 C   0  0  0  0  0  0  0  0  0  0  0  0
   46.1073  -44.6332   -0.7485 N   0  0  0  0  0  0  0  0  0  0  0  0
   46.3292  -43.3187   -0.9872 N   0  0  0  0  0  0  0  0  0  0  0  0
  1  2  1  0  0  0  0
  2  3  2  0  0  0  0
  3  4  1  0  0  0  0
  4  5  2  0  0  0  0
  5  6  1  0  0  0  0
  6  7  2  0  0  0  0
  7  8  1  0  0  0  0
  7  2  1  0  0  0  0
  8  9  2  0  0  0  0
  9 10  1  0  0  0  0
 10 11  1  0  0  0  0
 10 26  2  0  0  0  0
 11 12  1  0  0  0  0
 12 13  1  0  0  0  0
 13 14  2  0  0  0  0
 13 15  1  0  0  0  0
 15 16  1  0  0  0  0
 16 17  2  0  0  0  0
 17 18  1  0  0  0  0
 18 19  2  0  0  0  0
 19 20  1  0  0  0  0
 20 21  2  0  0  0  0
 21 22  1  0  0  0  0
 22 23  2  0  0  0  0
 23 24  1  0  0  0  0
 24 25  2  0  0  0  0
 25 16  1  0  0  0  0
 25 20  1  0  0  0  0
 26 27  1  0  0  0  0
 27  8  1  0  0  0  0
M  END
>  <CHROM.1>
3.79683386,-1.30913134,-87.39699147,45.39943546,-4.78167926,43.52920586,-44.06062368
2.55437797,0.59910992,1.10602452,-0.00372009

>  <Name>
design_7

>  <RI>
0

>  <Rbt.Current_Directory>
/home/ziqiaoxu/icml18-jtnn/VAEdesign

>  <Rbt.Executable>
rbdock ($Id: //depot/dev/client3/rdock/2013.1/src/exe/rbdock.cxx#4 $)

>  <Rbt.Library>
libRbt.so (2013.1, Build901 2013/11/27)

>  <Rbt.Parameter_File>
/export/apps/rDock/src/rDock_2013.1_src//data/scripts/dock.prm

>  <Rbt.Receptor>
/home/ziqiaoxu/icml18-jtnn/VAEdesign/targets/RdRp-SARS-CoV-2/pocket_docking.prm

>  <SCORE>
-22.9513

>  <SCORE.INTER>
-22.3885

>  <SCORE.INTER.CONST>
1

>  <SCORE.INTER.POLAR>
-2.1508

>  <SCORE.INTER.REPUL>
0.0494249

>  <SCORE.INTER.ROT>
5

>  <SCORE.INTER.VDW>
-25.7229

>  <SCORE.INTER.norm>
-0.829205

>  <SCORE.INTRA>
-0.562744

>  <SCORE.INTRA.DIHEDRAL>
3.14031

>  <SCORE.INTRA.DIHEDRAL.0>
3.1362

>  <SCORE.INTRA.POLAR>
0

>  <SCORE.INTRA.POLAR.0>
0

>  <SCORE.INTRA.REPUL>
0

>  <SCORE.INTRA.REPUL.0>
0

>  <SCORE.INTRA.VDW>
-2.1329

>  <SCORE.INTRA.VDW.0>
2.47104

>  <SCORE.INTRA.norm>
-0.0208424

>  <SCORE.RESTR>
0

>  <SCORE.RESTR.CAVITY>
0

>  <SCORE.RESTR.norm>
0

>  <SCORE.SYSTEM>
0

>  <SCORE.SYSTEM.CONST>
0

>  <SCORE.SYSTEM.DIHEDRAL>
0

>  <SCORE.SYSTEM.norm>
0

>  <SCORE.heavy>
27

>  <SCORE.norm>
-0.850047

$$$$
design_11
 OpenBabel05252019093D

 25 28  0  0  0  0  0  0  0  0999 V2000
   44.5260  -44.1950    4.6352 O   0  0  0  0  0  0  0  0  0  0  0  0
   45.0708  -45.1246    5.2394 C   0  0  0  0  0  0  0  0  0  0  0  0
   44.5625  -45.5732    6.4831 N   0  0  0  0  0  0  0  0  0  0  0  0
   43.4021  -44.9769    7.0701 C   0  0  0  0  0  0  0  0  0  0  0  0
   43.7288  -43.7656    7.8514 C   0  0  0  0  0  0  0  0  0  0  0  0
   44.2580  -44.0801    9.2100 C   0  0  0  0  0  0  0  0  0  0  0  0
   43.6693  -43.7052   10.3890 N   0  0  0  0  0  0  0  0  0  0  0  0
   44.4029  -44.1334   11.4244 C   0  0  0  0  0  0  0  0  0  0  0  0
   44.2930  -44.0442   12.8047 C   0  0  0  0  0  0  0  0  0  0  0  0
   45.2090  -44.5851   13.6737 C   0  0  0  0  0  0  0  0  0  0  0  0
   46.2906  -45.2497   13.1259 C   0  0  0  0  0  0  0  0  0  0  0  0
   46.4352  -45.3595   11.7588 C   0  0  0  0  0  0  0  0  0  0  0  0
   45.4929  -44.8021   10.9192 C   0  0  0  0  0  0  0  0  0  0  0  0
   45.3608  -44.7430    9.5627 N   0  0  0  0  0  0  0  0  0  0  0  0
   46.2346  -45.7838    4.7076 N   0  0  0  0  0  0  0  0  0  0  0  0
   46.7659  -45.3463    3.4425 C   0  0  0  0  0  0  0  0  0  0  0  0
   46.6411  -46.4813    2.4298 C   0  0  0  0  0  0  0  0  0  0  0  0
   45.4833  -46.3088    1.5207 C   0  0  0  0  0  0  0  0  0  0  0  0
   44.2303  -45.9251    1.9428 C   0  0  0  0  0  0  0  0  0  0  0  0
   43.1561  -45.7680    1.0778 C   0  0  0  0  0  0  0  0  0  0  0  0
   43.3421  -46.0041   -0.2656 C   0  0  0  0  0  0  0  0  0  0  0  0
   44.5981  -46.3915   -0.7088 C   0  0  0  0  0  0  0  0  0  0  0  0
   45.6577  -46.5440    0.1632 C   0  0  0  0  0  0  0  0  0  0  0  0
   47.9303  -47.0170    1.9639 C   0  0  0  0  0  0  0  0  0  0  0  0
   47.0423  -47.8593    2.8508 C   0  0  0  0  0  0  0  0  0  0  0  0
  1  2  2  0  0  0  0
  2  3  1  0  0  0  0
  2 15  1  0  0  0  0
  3  4  1  0  0  0  0
  4  5  1  0  0  0  0
  5  6  1  0  0  0  0
  6  7  2  0  0  0  0
  7  8  1  0  0  0  0
  8  9  2  0  0  0  0
  9 10  1  0  0  0  0
 10 11  2  0  0  0  0
 11 12  1  0  0  0  0
 12 13  2  0  0  0  0
 13 14  1  0  0  0  0
 13  8  1  0  0  0  0
 14  6  1  0  0  0  0
 15 16  1  0  0  0  0
 16 17  1  0  0  0  0
 17 18  1  0  0  0  0
 17 24  1  0  0  0  0
 18 19  2  0  0  0  0
 19 20  1  0  0  0  0
 20 21  2  0  0  0  0
 21 22  1  0  0  0  0
 22 23  2  0  0  0  0
 23 18  1  0  0  0  0
 24 25  1  0  0  0  0
 25 17  1  0  0  0  0
M  END
>  <CHROM.1>
-84.79341082,-79.95855583,-118.65244693,-115.91865313,100.58944425,-44.27197942
45.11965318,-45.35198089,6.11098819,1.54140884,0.45809114,-1.72754138

>  <Name>
design_11

>  <RI>
0

>  <Rbt.Current_Directory>
/home/ziqiaoxu/icml18-jtnn/VAEdesign

>  <Rbt.Executable>
rbdock ($Id: //depot/dev/client3/rdock/2013.1/src/exe/rbdock.cxx#4 $)

>  <Rbt.Library>
libRbt.so (2013.1, Build901 2013/11/27)

>  <Rbt.Parameter_File>
/export/apps/rDock/src/rDock_2013.1_src//data/scripts/dock.prm

>  <Rbt.Receptor>
/home/ziqiaoxu/icml18-jtnn/VAEdesign/targets/RdRp-SARS-CoV-2/pocket_docking.prm

>  <SCORE>
-21.5057

>  <SCORE.INTER>
-22.945

>  <SCORE.INTER.CONST>
1

>  <SCORE.INTER.POLAR>
-2.53592

>  <SCORE.INTER.REPUL>
0

>  <SCORE.INTER.ROT>
6

>  <SCORE.INTER.VDW>
-25.7228

>  <SCORE.INTER.norm>
-0.917798

>  <SCORE.INTRA>
1.4393

>  <SCORE.INTRA.DIHEDRAL>
3.2259

>  <SCORE.INTRA.DIHEDRAL.0>
5.75077

>  <SCORE.INTRA.POLAR>
0

>  <SCORE.INTRA.POLAR.0>
0

>  <SCORE.INTRA.REPUL>
0

>  <SCORE.INTRA.REPUL.0>
0

>  <SCORE.INTRA.VDW>
-0.173652

>  <SCORE.INTRA.VDW.0>
-1.33743

>  <SCORE.INTRA.norm>
0.057572

>  <SCORE.RESTR>
0

>  <SCORE.RESTR.CAVITY>
0

>  <SCORE.RESTR.norm>
0

>  <SCORE.SYSTEM>
0

>  <SCORE.SYSTEM.CONST>
0

>  <SCORE.SYSTEM.DIHEDRAL>
0

>  <SCORE.SYSTEM.norm>
0

>  <SCORE.heavy>
25

>  <SCORE.norm>
-0.860226

$$$$
design_3
 OpenBabel05252019093D

 25 28  0  0  0  0  0  0  0  0999 V2000
   40.6884  -39.1738    1.1284 C   0  0  0  0  0  0  0  0  0  0  0  0
   40.3508  -38.5267    2.4546 C   0  0  0  0  0  0  0  0  0  0  0  0
   40.4259  -39.0570    3.6616 N   0  0  0  0  0  0  0  0  0  0  0  0
   40.0940  -38.3519    4.6973 C   0  0  0  0  0  0  0  0  0  0  0  0
   40.1607  -38.9032    6.0820 C   0  0  0  0  0  0  0  0  0  0  0  0
   40.4498  -38.0784    7.1646 C   0  0  0  0  0  0  0  0  0  0  0  0
   40.5294  -38.5035    8.4613 C   0  0  0  0  0  0  0  0  0  0  0  0
   40.3022  -39.8564    8.6867 C   0  0  0  0  0  0  0  0  0  0  0  0
   40.3018  -40.5952    9.8128 N   0  0  0  0  0  0  0  0  0  0  0  0
   40.0247  -41.8711    9.5162 C   0  0  0  0  0  0  0  0  0  0  0  0
   39.9281  -43.0039   10.4645 C   0  0  0  0  0  0  0  0  0  0  0  0
   39.5795  -44.2366    9.7704 N   0  0  0  0  0  0  0  0  0  0  0  0
   40.4000  -44.8014    8.7840 C   0  0  0  0  0  0  0  0  0  0  0  0
   41.4975  -44.2547    8.4480 O   0  0  0  0  0  0  0  0  0  0  0  0
   40.0365  -46.0262    8.1068 C   0  0  0  0  0  0  0  0  0  0  0  0
   39.0132  -46.8281    8.6075 C   0  0  0  0  0  0  0  0  0  0  0  0
   38.6769  -47.9901    7.9500 C   0  0  0  0  0  0  0  0  0  0  0  0
   39.3398  -48.3818    6.7919 C   0  0  0  0  0  0  0  0  0  0  0  0
   40.3453  -47.5974    6.2965 C   0  0  0  0  0  0  0  0  0  0  0  0
   40.6789  -46.4284    6.9638 C   0  0  0  0  0  0  0  0  0  0  0  0
   39.8471  -41.9330    8.1699 N   0  0  0  0  0  0  0  0  0  0  0  0
   40.0127  -40.7111    7.6452 C   0  0  0  0  0  0  0  0  0  0  0  0
   39.9456  -40.2145    6.3412 C   0  0  0  0  0  0  0  0  0  0  0  0
   39.6736  -37.0635    4.4728 C   0  0  0  0  0  0  0  0  0  0  0  0
   39.7839  -36.9494    2.7728 S   0  0  0  0  0  0  0  0  0  0  0  0
  1  2  1  0  0  0  0
  2  3  2  0  0  0  0
  3  4  1  0  0  0  0
  4  5  1  0  0  0  0
  4 24  2  0  0  0  0
  5  6  2  0  0  0  0
  6  7  1  0  0  0  0
  7  8  2  0  0  0  0
  8  9  1  0  0  0  0
  9 10  2  0  0  0  0
 10 11  1  0  0  0  0
 10 21  1  0  0  0  0
 11 12  1  0  0  0  0
 12 13  1  0  0  0  0
 13 14  2  0  0  0  0
 13 15  1  0  0  0  0
 15 16  2  0  0  0  0
 16 17  1  0  0  0  0
 17 18  2  0  0  0  0
 18 19  1  0  0  0  0
 19 20  2  0  0  0  0
 20 15  1  0  0  0  0
 21 22  1  0  0  0  0
 22 23  2  0  0  0  0
 22  8  1  0  0  0  0
 23  5  1  0  0  0  0
 24 25  1  0  0  0  0
 25  2  1  0  0  0  0
M  END
>  <CHROM.1>
148.29227632,178.73656498,61.81024515,-13.75671074,40.07425125,-41.72909628
6.71241454,0.76973154,-1.52683053,-1.29067159

>  <Name>
design_3

>  <RI>
0

>  <Rbt.Current_Directory>
/home/ziqiaoxu/icml18-jtnn/VAEdesign

>  <Rbt.Executable>
rbdock ($Id: //depot/dev/client3/rdock/2013.1/src/exe/rbdock.cxx#4 $)

>  <Rbt.Library>
libRbt.so (2013.1, Build901 2013/11/27)

>  <Rbt.Parameter_File>
/export/apps/rDock/src/rDock_2013.1_src//data/scripts/dock.prm

>  <Rbt.Receptor>
/home/ziqiaoxu/icml18-jtnn/VAEdesign/targets/RdRp-SARS-CoV-2/pocket_docking.prm

>  <SCORE>
-18.2603

>  <SCORE.INTER>
-19.5285

>  <SCORE.INTER.CONST>
1

>  <SCORE.INTER.POLAR>
-0.943193

>  <SCORE.INTER.REPUL>
0

>  <SCORE.INTER.ROT>
4

>  <SCORE.INTER.VDW>
-25.7217

>  <SCORE.INTER.norm>
-0.78114

>  <SCORE.INTRA>
1.26824

>  <SCORE.INTRA.DIHEDRAL>
4.13017

>  <SCORE.INTRA.DIHEDRAL.0>
2.67057

>  <SCORE.INTRA.POLAR>
0

>  <SCORE.INTRA.POLAR.0>
0

>  <SCORE.INTRA.REPUL>
0

>  <SCORE.INTRA.REPUL.0>
0

>  <SCORE.INTRA.VDW>
-0.796844

>  <SCORE.INTRA.VDW.0>
-0.2576

>  <SCORE.INTRA.norm>
0.0507296

>  <SCORE.RESTR>
0

>  <SCORE.RESTR.CAVITY>
0

>  <SCORE.RESTR.norm>
0

>  <SCORE.SYSTEM>
0

>  <SCORE.SYSTEM.CONST>
0

>  <SCORE.SYSTEM.DIHEDRAL>
0

>  <SCORE.SYSTEM.norm>
0

>  <SCORE.heavy>
25

>  <SCORE.norm>
-0.730411

$$$$
design_1
 OpenBabel05252019093D

 24 26  0  0  0  0  0  0  0  0999 V2000
   39.6252  -46.3692    9.7436 C   0  0  0  0  0  0  0  0  0  0  0  0
   39.6169  -47.0666    8.4426 C   0  0  0  0  0  0  0  0  0  0  0  0
   38.5642  -47.9544    8.1344 C   0  0  0  0  0  0  0  0  0  0  0  0
   38.5298  -48.6170    6.9321 C   0  0  0  0  0  0  0  0  0  0  0  0
   39.5585  -48.3958    6.0178 C   0  0  0  0  0  0  0  0  0  0  0  0
   40.5794  -47.5239    6.3374 C   0  0  0  0  0  0  0  0  0  0  0  0
   40.6140  -46.8570    7.5471 C   0  0  0  0  0  0  0  0  0  0  0  0
   41.7407  -45.9372    7.8205 C   0  0  0  0  0  0  0  0  0  0  0  0
   42.9007  -45.8953    7.1775 N   0  0  0  0  0  0  0  0  0  0  0  0
   43.8034  -45.0364    7.5208 C   0  0  0  0  0  0  0  0  0  0  0  0
   45.1678  -44.9006    6.8530 C   0  0  0  0  0  0  0  0  0  0  0  0
   44.9907  -44.9129    5.3757 C   0  0  0  0  0  0  0  0  0  0  0  0
   44.1787  -44.0847    4.9168 O   0  0  0  0  0  0  0  0  0  0  0  0
   45.7397  -45.8424    4.6167 N   0  0  0  0  0  0  0  0  0  0  0  0
   45.7190  -46.0156    3.2171 C   0  0  0  0  0  0  0  0  0  0  0  0
   44.8141  -45.4852    2.3408 C   0  0  0  0  0  0  0  0  0  0  0  0
   44.8894  -45.7242    0.9628 C   0  0  0  0  0  0  0  0  0  0  0  0
   45.8879  -46.5083    0.4494 C   0  0  0  0  0  0  0  0  0  0  0  0
   46.8033  -47.0492    1.3034 C   0  0  0  0  0  0  0  0  0  0  0  0
   47.8423  -47.8690    0.7398 C   0  0  0  0  0  0  0  0  0  0  0  0
   48.6865  -48.5106    0.2858 N   0  0  0  0  0  0  0  0  0  0  0  0
   46.7168  -46.8064    2.6490 C   0  0  0  0  0  0  0  0  0  0  0  0
   43.5041  -44.1877    8.5643 C   0  0  0  0  0  0  0  0  0  0  0  0
   41.9271  -44.6983    8.9752 S   0  0  0  0  0  0  0  0  0  0  0  0
  1  2  1  0  0  0  0
  2  3  2  0  0  0  0
  3  4  1  0  0  0  0
  4  5  2  0  0  0  0
  5  6  1  0  0  0  0
  6  7  2  0  0  0  0
  7  8  1  0  0  0  0
  7  2  1  0  0  0  0
  8  9  2  0  0  0  0
  9 10  1  0  0  0  0
 10 11  1  0  0  0  0
 10 23  2  0  0  0  0
 11 12  1  0  0  0  0
 12 13  2  0  0  0  0
 12 14  1  0  0  0  0
 14 15  1  0  0  0  0
 15 16  2  0  0  0  0
 16 17  1  0  0  0  0
 17 18  2  0  0  0  0
 18 19  1  0  0  0  0
 19 20  1  0  0  0  0
 19 22  2  0  0  0  0
 20 21  3  0  0  0  0
 22 15  1  0  0  0  0
 23 24  1  0  0  0  0
 24  8  1  0  0  0  0
M  END
>  <CHROM.1>
162.95679307,46.20696484,53.50208239,-12.06392227,43.35486958,-46.22927925
5.51695194,2.48124367,0.51963430,0.96190570

>  <Name>
design_1

>  <RI>
0

>  <Rbt.Current_Directory>
/home/ziqiaoxu/icml18-jtnn/VAEdesign

>  <Rbt.Executable>
rbdock ($Id: //depot/dev/client3/rdock/2013.1/src/exe/rbdock.cxx#4 $)

>  <Rbt.Library>
libRbt.so (2013.1, Build901 2013/11/27)

>  <Rbt.Parameter_File>
/export/apps/rDock/src/rDock_2013.1_src//data/scripts/dock.prm

>  <Rbt.Receptor>
/home/ziqiaoxu/icml18-jtnn/VAEdesign/targets/RdRp-SARS-CoV-2/pocket_docking.prm

>  <SCORE>
-20.4943

>  <SCORE.INTER>
-19.2485

>  <SCORE.INTER.CONST>
1

>  <SCORE.INTER.POLAR>
-0.881982

>  <SCORE.INTER.REPUL>
0.0137582

>  <SCORE.INTER.ROT>
4

>  <SCORE.INTER.VDW>
-25.7186

>  <SCORE.INTER.norm>
-0.802021

>  <SCORE.INTRA>
-1.24581

>  <SCORE.INTRA.DIHEDRAL>
0.583075

>  <SCORE.INTRA.DIHEDRAL.0>
2.75965

>  <SCORE.INTRA.POLAR>
0

>  <SCORE.INTRA.POLAR.0>
0

>  <SCORE.INTRA.REPUL>
0

>  <SCORE.INTRA.REPUL.0>
0

>  <SCORE.INTRA.VDW>
-1.53735

>  <SCORE.INTRA.VDW.0>
1.89945

>  <SCORE.INTRA.norm>
-0.0519088

>  <SCORE.RESTR>
0

>  <SCORE.RESTR.CAVITY>
0

>  <SCORE.RESTR.norm>
0

>  <SCORE.SYSTEM>
0

>  <SCORE.SYSTEM.CONST>
0

>  <SCORE.SYSTEM.DIHEDRAL>
0

>  <SCORE.SYSTEM.norm>
0

>  <SCORE.heavy>
24

>  <SCORE.norm>
-0.85393

$$$$
design_14
 OpenBabel05252019093D

 24 26  0  0  0  0  0  0  0  0999 V2000
   40.1374  -36.3783    4.8778 N   0  0  0  0  0  0  0  0  0  0  0  0
   39.8844  -37.7791    4.8066 C   0  0  0  0  0  0  0  0  0  0  0  0
   39.6835  -38.3341    3.6729 O   0  0  0  0  0  0  0  0  0  0  0  0
   39.8470  -38.6179    6.0032 C   0  0  0  0  0  0  0  0  0  0  0  0
   39.3055  -39.8853    5.9413 C   0  0  0  0  0  0  0  0  0  0  0  0
   39.2427  -40.6821    7.0275 C   0  0  0  0  0  0  0  0  0  0  0  0
   39.7328  -40.2664    8.3175 C   0  0  0  0  0  0  0  0  0  0  0  0
   39.5636  -41.1385    9.3462 N   0  0  0  0  0  0  0  0  0  0  0  0
   39.3961  -42.0021   10.3649 C   0  0  0  0  0  0  0  0  0  0  0  0
   39.0138  -41.7703   11.5295 O   0  0  0  0  0  0  0  0  0  0  0  0
   39.7229  -43.4558   10.0530 C   0  0  0  0  0  0  0  0  0  0  0  0
   41.0840  -43.6846    9.5157 C   0  0  0  0  0  0  0  0  0  0  0  0
   41.5921  -45.0742    9.6824 C   0  0  0  0  0  0  0  0  0  0  0  0
   40.8386  -46.0575    8.8439 C   0  0  0  0  0  0  0  0  0  0  0  0
   39.8050  -46.8908    9.2920 C   0  0  0  0  0  0  0  0  0  0  0  0
   39.3612  -47.6309    8.2670 N   0  0  0  0  0  0  0  0  0  0  0  0
   40.0471  -47.3396    7.1426 C   0  0  0  0  0  0  0  0  0  0  0  0
   39.9527  -47.8288    5.8545 C   0  0  0  0  0  0  0  0  0  0  0  0
   40.7951  -47.3303    4.8808 C   0  0  0  0  0  0  0  0  0  0  0  0
   41.7075  -46.3528    5.2447 C   0  0  0  0  0  0  0  0  0  0  0  0
   41.8083  -45.8608    6.5325 C   0  0  0  0  0  0  0  0  0  0  0  0
   40.9721  -46.3509    7.5078 C   0  0  0  0  0  0  0  0  0  0  0  0
   40.2609  -38.9907    8.3085 C   0  0  0  0  0  0  0  0  0  0  0  0
   40.3265  -38.1759    7.2066 C   0  0  0  0  0  0  0  0  0  0  0  0
  1  2  1  0  0  0  0
  2  3  2  0  0  0  0
  2  4  1  0  0  0  0
  4  5  2  0  0  0  0
  5  6  1  0  0  0  0
  6  7  2  0  0  0  0
  7  8  1  0  0  0  0
  7 23  1  0  0  0  0
  8  9  1  0  0  0  0
  9 10  2  0  0  0  0
  9 11  1  0  0  0  0
 11 12  1  0  0  0  0
 12 13  1  0  0  0  0
 13 14  1  0  0  0  0
 14 15  2  0  0  0  0
 15 16  1  0  0  0  0
 16 17  1  0  0  0  0
 17 18  2  0  0  0  0
 18 19  1  0  0  0  0
 19 20  2  0  0  0  0
 20 21  1  0  0  0  0
 21 22  2  0  0  0  0
 22 14  1  0  0  0  0
 22 17  1  0  0  0  0
 23 24  2  0  0  0  0
 24  4  1  0  0  0  0
M  END
>  <CHROM.1>
165.11814386,178.82871868,54.96158529,158.30441789,67.93109677,-99.03835467
40.15095666,-42.74748021,7.52503773,-2.10577130,-1.41921905,2.43315854

>  <Name>
design_14

>  <RI>
0

>  <Rbt.Current_Directory>
/home/ziqiaoxu/icml18-jtnn/VAEdesign

>  <Rbt.Executable>
rbdock ($Id: //depot/dev/client3/rdock/2013.1/src/exe/rbdock.cxx#4 $)

>  <Rbt.Library>
libRbt.so (2013.1, Build901 2013/11/27)

>  <Rbt.Parameter_File>
/export/apps/rDock/src/rDock_2013.1_src//data/scripts/dock.prm

>  <Rbt.Receptor>
/home/ziqiaoxu/icml18-jtnn/VAEdesign/targets/RdRp-SARS-CoV-2/pocket_docking.prm

>  <SCORE>
-29.9198

>  <SCORE.INTER>
-22.7699

>  <SCORE.INTER.CONST>
1

>  <SCORE.INTER.POLAR>
-2.58587

>  <SCORE.INTER.REPUL>
0.0680984

>  <SCORE.INTER.ROT>
6

>  <SCORE.INTER.VDW>
-25.7185

>  <SCORE.INTER.norm>
-0.948747

>  <SCORE.INTRA>
-7.16234

>  <SCORE.INTRA.DIHEDRAL>
-12.8793

>  <SCORE.INTRA.DIHEDRAL.0>
19.1122

>  <SCORE.INTRA.POLAR>
0

>  <SCORE.INTRA.POLAR.0>
0

>  <SCORE.INTRA.REPUL>
0

>  <SCORE.INTRA.REPUL.0>
0

>  <SCORE.INTRA.VDW>
-0.722669

>  <SCORE.INTRA.VDW.0>
-0.175617

>  <SCORE.INTRA.norm>
-0.298431

>  <SCORE.RESTR>
0.0124844

>  <SCORE.RESTR.CAVITY>
0.0124844

>  <SCORE.RESTR.norm>
0.000520184

>  <SCORE.SYSTEM>
0

>  <SCORE.SYSTEM.CONST>
0

>  <SCORE.SYSTEM.DIHEDRAL>
0

>  <SCORE.SYSTEM.norm>
0

>  <SCORE.heavy>
24

>  <SCORE.norm>
-1.24666

$$$$
design_17
 OpenBabel05252019093D

 22 23  0  0  0  0  0  0  0  0999 V2000
   45.2962  -43.9190    9.3506 C   0  0  0  0  0  0  0  0  0  0  0  0
   43.9819  -44.3060    8.1893 S   0  0  0  0  0  0  0  0  0  0  0  0
   42.4774  -44.8595    9.0511 C   0  0  0  0  0  0  0  0  0  0  0  0
   42.1478  -44.3118   10.2611 C   0  0  0  0  0  0  0  0  0  0  0  0
   41.0058  -44.7019   10.9165 C   0  0  0  0  0  0  0  0  0  0  0  0
   40.1763  -45.6585   10.3508 C   0  0  0  0  0  0  0  0  0  0  0  0
   40.5010  -46.2256    9.1170 C   0  0  0  0  0  0  0  0  0  0  0  0
   39.7526  -47.1550    8.4731 N   0  0  0  0  0  0  0  0  0  0  0  0
   39.0246  -48.0592    7.8468 C   0  0  0  0  0  0  0  0  0  0  0  0
   38.5324  -49.1315    8.2888 O   0  0  0  0  0  0  0  0  0  0  0  0
   38.6937  -47.8271    6.3666 C   0  0  0  0  0  0  0  0  0  0  0  0
   37.9870  -46.5394    6.2820 C   0  0  0  0  0  0  0  0  0  0  0  0
   36.6792  -46.5048    5.8112 C   0  0  0  0  0  0  0  0  0  0  0  0
   35.9761  -45.3464    5.6990 C   0  0  0  0  0  0  0  0  0  0  0  0
   36.5651  -44.1158    6.0647 C   0  0  0  0  0  0  0  0  0  0  0  0
   35.7964  -42.9343    5.9124 N   0  0  0  0  0  0  0  0  0  0  0  0
   36.2233  -41.6578    6.2044 C   0  0  0  0  0  0  0  0  0  0  0  0
   35.2275  -40.5218    5.9594 C   0  0  0  0  0  0  0  0  0  0  0  0
   37.3048  -41.2648    6.6417 O   0  0  0  0  0  0  0  0  0  0  0  0
   37.8547  -44.1372    6.5297 C   0  0  0  0  0  0  0  0  0  0  0  0
   38.5549  -45.3461    6.6349 C   0  0  0  0  0  0  0  0  0  0  0  0
   41.6730  -45.8017    8.4831 C   0  0  0  0  0  0  0  0  0  0  0  0
  1  2  1  0  0  0  0
  2  3  1  0  0  0  0
  3  4  2  0  0  0  0
  4  5  1  0  0  0  0
  5  6  2  0  0  0  0
  6  7  1  0  0  0  0
  7  8  1  0  0  0  0
  7 22  2  0  0  0  0
  8  9  1  0  0  0  0
  9 10  2  0  0  0  0
  9 11  1  0  0  0  0
 11 12  1  0  0  0  0
 12 13  2  0  0  0  0
 13 14  1  0  0  0  0
 14 15  2  0  0  0  0
 15 16  1  0  0  0  0
 15 20  1  0  0  0  0
 16 17  1  0  0  0  0
 17 18  1  0  0  0  0
 17 19  2  0  0  0  0
 20 21  2  0  0  0  0
 21 12  1  0  0  0  0
 22  3  1  0  0  0  0
M  END
>  <CHROM.1>
34.99987663,-94.42340314,-58.07401587,-117.91727724,-179.15187784,39.42325801
-44.94699521,7.68185404,-0.25735781,-0.42012578,-0.08767063

>  <Name>
design_17

>  <RI>
0

>  <Rbt.Current_Directory>
/home/ziqiaoxu/icml18-jtnn/VAEdesign

>  <Rbt.Executable>
rbdock ($Id: //depot/dev/client3/rdock/2013.1/src/exe/rbdock.cxx#4 $)

>  <Rbt.Library>
libRbt.so (2013.1, Build901 2013/11/27)

>  <Rbt.Parameter_File>
/export/apps/rDock/src/rDock_2013.1_src//data/scripts/dock.prm

>  <Rbt.Receptor>
/home/ziqiaoxu/icml18-jtnn/VAEdesign/targets/RdRp-SARS-CoV-2/pocket_docking.prm

>  <SCORE>
-18.3371

>  <SCORE.INTER>
-19.0562

>  <SCORE.INTER.CONST>
1

>  <SCORE.INTER.POLAR>
-1.09957

>  <SCORE.INTER.REPUL>
0

>  <SCORE.INTER.ROT>
5

>  <SCORE.INTER.VDW>
-25.7177

>  <SCORE.INTER.norm>
-0.866192

>  <SCORE.INTRA>
0.719071

>  <SCORE.INTRA.DIHEDRAL>
3.57131

>  <SCORE.INTRA.DIHEDRAL.0>
9.89739

>  <SCORE.INTRA.POLAR>
0

>  <SCORE.INTRA.POLAR.0>
0

>  <SCORE.INTRA.REPUL>
0

>  <SCORE.INTRA.REPUL.0>
0

>  <SCORE.INTRA.VDW>
-1.06658

>  <SCORE.INTRA.VDW.0>
0.161803

>  <SCORE.INTRA.norm>
0.032685

>  <SCORE.RESTR>
0

>  <SCORE.RESTR.CAVITY>
0

>  <SCORE.RESTR.norm>
0

>  <SCORE.SYSTEM>
0

>  <SCORE.SYSTEM.CONST>
0

>  <SCORE.SYSTEM.DIHEDRAL>
0

>  <SCORE.SYSTEM.norm>
0

>  <SCORE.heavy>
22

>  <SCORE.norm>
-0.833507

$$$$
design_18
 OpenBabel05252019093D

 23 24  0  0  0  0  0  0  0  0999 V2000
   46.8920  -45.4639   11.6154 C   0  0  0  0  0  0  0  0  0  0  0  0
   45.4859  -44.9673   11.6227 C   0  0  0  0  0  0  0  0  0  0  0  0
   45.3483  -43.5301   11.5693 N   0  0  0  0  0  0  0  0  0  0  0  0
   45.4815  -42.7759   10.3618 C   0  0  0  0  0  0  0  0  0  0  0  0
   45.3372  -43.5137    9.1105 C   0  0  0  0  0  0  0  0  0  0  0  0
   46.3145  -43.4881    8.1568 C   0  0  0  0  0  0  0  0  0  0  0  0
   46.1841  -44.1746    6.9741 C   0  0  0  0  0  0  0  0  0  0  0  0
   45.0437  -44.8949    6.7623 C   0  0  0  0  0  0  0  0  0  0  0  0
   43.9902  -44.9715    7.6961 C   0  0  0  0  0  0  0  0  0  0  0  0
   42.8623  -45.7563    7.3921 N   0  0  0  0  0  0  0  0  0  0  0  0
   41.7133  -45.9529    8.1408 C   0  0  0  0  0  0  0  0  0  0  0  0
   41.5919  -45.3677    9.2672 O   0  0  0  0  0  0  0  0  0  0  0  0
   40.5982  -46.8120    7.7120 C   0  0  0  0  0  0  0  0  0  0  0  0
   40.4797  -47.3064    6.4352 C   0  0  0  0  0  0  0  0  0  0  0  0
   39.3930  -48.1230    6.0808 C   0  0  0  0  0  0  0  0  0  0  0  0
   38.4204  -48.4498    6.9975 C   0  0  0  0  0  0  0  0  0  0  0  0
   38.5566  -47.9443    8.2731 C   0  0  0  0  0  0  0  0  0  0  0  0
   39.6297  -47.1357    8.6300 C   0  0  0  0  0  0  0  0  0  0  0  0
   39.7364  -46.6338    9.9529 N   0  0  0  0  0  0  0  0  0  0  0  0
   44.1931  -44.2638    8.8462 C   0  0  0  0  0  0  0  0  0  0  0  0
   45.0775  -42.8227   12.7723 C   0  0  0  0  0  0  0  0  0  0  0  0
   44.9291  -43.5231   14.0859 C   0  0  0  0  0  0  0  0  0  0  0  0
   44.9485  -41.5731   12.7963 O   0  0  0  0  0  0  0  0  0  0  0  0
  1  2  1  0  0  0  0
  2  3  1  0  0  0  0
  3  4  1  0  0  0  0
  3 21  1  0  0  0  0
  4  5  1  0  0  0  0
  5  6  2  0  0  0  0
  6  7  1  0  0  0  0
  7  8  2  0  0  0  0
  8  9  1  0  0  0  0
  9 10  1  0  0  0  0
  9 20  2  0  0  0  0
 10 11  1  0  0  0  0
 11 12  2  0  0  0  0
 11 13  1  0  0  0  0
 13 14  2  0  0  0  0
 14 15  1  0  0  0  0
 15 16  2  0  0  0  0
 16 17  1  0  0  0  0
 17 18  2  0  0  0  0
 18 19  1  0  0  0  0
 18 13  1  0  0  0  0
 20  5  1  0  0  0  0
 21 22  1  0  0  0  0
 21 23  2  0  0  0  0
M  END
>  <CHROM.1>
78.86850899,19.18890358,-124.58499940,-178.63854903,-12.12443267,43.17396491
-45.15541726,9.28636280,0.63003503,0.46679921,1.32738026

>  <Name>
design_18

>  <RI>
0

>  <Rbt.Current_Directory>
/home/ziqiaoxu/icml18-jtnn/VAEdesign

>  <Rbt.Executable>
rbdock ($Id: //depot/dev/client3/rdock/2013.1/src/exe/rbdock.cxx#4 $)

>  <Rbt.Library>
libRbt.so (2013.1, Build901 2013/11/27)

>  <Rbt.Parameter_File>
/export/apps/rDock/src/rDock_2013.1_src//data/scripts/dock.prm

>  <Rbt.Receptor>
/home/ziqiaoxu/icml18-jtnn/VAEdesign/targets/RdRp-SARS-CoV-2/pocket_docking.prm

>  <SCORE>
-19.9019

>  <SCORE.INTER>
-20.2175

>  <SCORE.INTER.CONST>
1

>  <SCORE.INTER.POLAR>
-1.5115

>  <SCORE.INTER.REPUL>
0.0474712

>  <SCORE.INTER.ROT>
5

>  <SCORE.INTER.VDW>
-25.7157

>  <SCORE.INTER.norm>
-0.879021

>  <SCORE.INTRA>
0.315634

>  <SCORE.INTRA.DIHEDRAL>
-0.569017

>  <SCORE.INTRA.DIHEDRAL.0>
4.24562

>  <SCORE.INTRA.POLAR>
0

>  <SCORE.INTRA.POLAR.0>
0

>  <SCORE.INTRA.REPUL>
0

>  <SCORE.INTRA.REPUL.0>
0

>  <SCORE.INTRA.VDW>
0.600142

>  <SCORE.INTRA.VDW.0>
0.204786

>  <SCORE.INTRA.norm>
0.0137232

>  <SCORE.RESTR>
0

>  <SCORE.RESTR.CAVITY>
0

>  <SCORE.RESTR.norm>
0

>  <SCORE.SYSTEM>
0

>  <SCORE.SYSTEM.CONST>
0

>  <SCORE.SYSTEM.DIHEDRAL>
0

>  <SCORE.SYSTEM.norm>
0

>  <SCORE.heavy>
23

>  <SCORE.norm>
-0.865298

$$$$
design_6
 OpenBabel05252019093D

 23 25  0  0  0  0  0  0  0  0999 V2000
   43.4224  -44.1595    9.4106 C   0  0  0  0  0  0  0  0  0  0  0  0
   42.5938  -45.0551    8.5517 C   0  0  0  0  0  0  0  0  0  0  0  0
   41.4512  -45.6454    9.0572 C   0  0  0  0  0  0  0  0  0  0  0  0
   40.6856  -46.4722    8.2646 C   0  0  0  0  0  0  0  0  0  0  0  0
   41.0059  -46.7566    6.9428 C   0  0  0  0  0  0  0  0  0  0  0  0
   39.9841  -47.8213    5.9912 S   0  0  0  0  0  0  0  0  0  0  0  0
   40.4935  -47.9340    4.5907 O   0  0  0  0  0  0  0  0  0  0  0  0
   40.0788  -49.1875    6.6108 O   0  0  0  0  0  0  0  0  0  0  0  0
   38.3906  -47.2888    6.1014 N   0  0  0  0  0  0  0  0  0  0  0  0
   38.1615  -45.9022    5.8111 C   0  0  0  0  0  0  0  0  0  0  0  0
   38.4132  -44.9830    6.9588 C   0  0  0  0  0  0  0  0  0  0  0  0
   38.3275  -43.5594    6.3708 C   0  0  0  0  0  0  0  0  0  0  0  0
   36.9106  -43.3849    6.0914 N   0  0  0  0  0  0  0  0  0  0  0  0
   36.3274  -42.1130    6.2427 C   0  0  0  0  0  0  0  0  0  0  0  0
   37.0840  -41.1590    6.6112 O   0  0  0  0  0  0  0  0  0  0  0  0
   34.9442  -41.9029    5.9934 N   0  0  0  0  0  0  0  0  0  0  0  0
   34.3046  -40.6166    6.1346 C   0  0  0  0  0  0  0  0  0  0  0  0
   34.3274  -40.1001    7.6020 C   0  0  0  0  0  0  0  0  0  0  0  0
   33.0578  -40.4126    6.8506 C   0  0  0  0  0  0  0  0  0  0  0  0
   36.0810  -44.4960    5.6578 C   0  0  0  0  0  0  0  0  0  0  0  0
   36.8399  -45.6769    5.1702 C   0  0  0  0  0  0  0  0  0  0  0  0
   42.1463  -46.1640    6.4478 C   0  0  0  0  0  0  0  0  0  0  0  0
   42.9247  -45.3272    7.2433 C   0  0  0  0  0  0  0  0  0  0  0  0
  1  2  1  0  0  0  0
  2  3  2  0  0  0  0
  3  4  1  0  0  0  0
  4  5  2  0  0  0  0
  5  6  1  0  0  0  0
  5 22  1  0  0  0  0
  6  7  2  0  0  0  0
  6  8  2  0  0  0  0
  6  9  1  0  0  0  0
  9 10  1  0  0  0  0
 10 11  1  0  0  0  0
 11 12  1  0  0  0  0
 12 13  1  0  0  0  0
 13 14  1  0  0  0  0
 13 20  1  0  0  0  0
 14 15  2  0  0  0  0
 14 16  1  0  0  0  0
 16 17  1  0  0  0  0
 17 18  1  0  0  0  0
 18 19  1  0  0  0  0
 19 17  1  0  0  0  0
 20 21  1  0  0  0  0
 21 10  1  0  0  0  0
 22 23  2  0  0  0  0
 23  2  1  0  0  0  0
M  END
>  <CHROM.1>
177.67876946,51.60002329,-83.14185192,-64.04930384,38.64220822,-44.80554997
6.66159947,-0.60048360,-0.41208968,0.42891816

>  <Name>
design_6

>  <RI>
0

>  <Rbt.Current_Directory>
/home/ziqiaoxu/icml18-jtnn/VAEdesign

>  <Rbt.Executable>
rbdock ($Id: //depot/dev/client3/rdock/2013.1/src/exe/rbdock.cxx#4 $)

>  <Rbt.Library>
libRbt.so (2013.1, Build901 2013/11/27)

>  <Rbt.Parameter_File>
/export/apps/rDock/src/rDock_2013.1_src//data/scripts/dock.prm

>  <Rbt.Receptor>
/home/ziqiaoxu/icml18-jtnn/VAEdesign/targets/RdRp-SARS-CoV-2/pocket_docking.prm

>  <SCORE>
-18.0346

>  <SCORE.INTER>
-17.9177

>  <SCORE.INTER.CONST>
1

>  <SCORE.INTER.POLAR>
-0.472402

>  <SCORE.INTER.REPUL>
0.000776114

>  <SCORE.INTER.ROT>
4

>  <SCORE.INTER.VDW>
-25.7154

>  <SCORE.INTER.norm>
-0.779031

>  <SCORE.INTRA>
-0.116907

>  <SCORE.INTRA.DIHEDRAL>
-0.882429

>  <SCORE.INTRA.DIHEDRAL.0>
4.57261

>  <SCORE.INTRA.POLAR>
0

>  <SCORE.INTRA.POLAR.0>
0

>  <SCORE.INTRA.REPUL>
0

>  <SCORE.INTRA.REPUL.0>
0

>  <SCORE.INTRA.VDW>
0.324307

>  <SCORE.INTRA.VDW.0>
-2.6982

>  <SCORE.INTRA.norm>
-0.00508293

>  <SCORE.RESTR>
0

>  <SCORE.RESTR.CAVITY>
0

>  <SCORE.RESTR.norm>
0

>  <SCORE.SYSTEM>
0

>  <SCORE.SYSTEM.CONST>
0

>  <SCORE.SYSTEM.DIHEDRAL>
0

>  <SCORE.SYSTEM.norm>
0

>  <SCORE.heavy>
23

>  <SCORE.norm>
-0.784114

$$$$
design_16
 OpenBabel05252019093D

 25 27  0  0  0  0  0  0  0  0999 V2000
   40.4064  -38.3956    6.8297 C   0  0  0  0  0  0  0  0  0  0  0  0
   40.1541  -37.8015    5.5361 N   0  0  0  0  0  0  0  0  0  0  0  0
   39.5259  -36.6498    5.3145 C   0  0  0  0  0  0  0  0  0  0  0  0
   39.5206  -36.4849    3.9585 N   0  0  0  0  0  0  0  0  0  0  0  0
   40.1392  -37.5268    3.3668 C   0  0  0  0  0  0  0  0  0  0  0  0
   40.3534  -37.7366    1.9112 C   0  0  0  0  0  0  0  0  0  0  0  0
   40.8139  -39.1184    1.6782 N   0  0  0  0  0  0  0  0  0  0  0  0
   42.1031  -39.3254    1.1413 C   0  0  0  0  0  0  0  0  0  0  0  0
   42.8403  -38.3329    0.8718 O   0  0  0  0  0  0  0  0  0  0  0  0
   42.6099  -40.6529    0.8882 C   0  0  0  0  0  0  0  0  0  0  0  0
   41.8633  -41.7408    1.2670 C   0  0  0  0  0  0  0  0  0  0  0  0
   42.3025  -43.0094    1.0547 C   0  0  0  0  0  0  0  0  0  0  0  0
   43.5357  -43.2493    0.4407 C   0  0  0  0  0  0  0  0  0  0  0  0
   43.9166  -44.5638    0.2350 N   0  0  0  0  0  0  0  0  0  0  0  0
   45.1077  -45.0058   -0.3675 C   0  0  0  0  0  0  0  0  0  0  0  0
   45.9559  -44.1960   -0.7759 O   0  0  0  0  0  0  0  0  0  0  0  0
   45.3946  -46.4601   -0.5372 C   0  0  0  0  0  0  0  0  0  0  0  0
   46.2889  -46.8719    0.6055 C   0  0  0  0  0  0  0  0  0  0  0  0
   46.0120  -46.7844    1.9489 C   0  0  0  0  0  0  0  0  0  0  0  0
   46.9567  -47.2098    2.7965 C   0  0  0  0  0  0  0  0  0  0  0  0
   48.1182  -47.6958    2.2530 C   0  0  0  0  0  0  0  0  0  0  0  0
   47.8534  -47.5433    0.5792 S   0  0  0  0  0  0  0  0  0  0  0  0
   44.2708  -42.1718    0.0672 C   0  0  0  0  0  0  0  0  0  0  0  0
   43.8180  -40.8596    0.2862 C   0  0  0  0  0  0  0  0  0  0  0  0
   40.5184  -38.3229    4.3812 N   0  0  0  0  0  0  0  0  0  0  0  0
  1  2  1  0  0  0  0
  2  3  1  0  0  0  0
  3  4  2  0  0  0  0
  4  5  1  0  0  0  0
  5  6  1  0  0  0  0
  5 25  2  0  0  0  0
  6  7  1  0  0  0  0
  7  8  1  0  0  0  0
  8  9  2  0  0  0  0
  8 10  1  0  0  0  0
 10 11  2  0  0  0  0
 11 12  1  0  0  0  0
 12 13  2  0  0  0  0
 13 14  1  0  0  0  0
 13 23  1  0  0  0  0
 14 15  1  0  0  0  0
 15 16  2  0  0  0  0
 15 17  1  0  0  0  0
 17 18  1  0  0  0  0
 18 19  2  0  0  0  0
 19 20  1  0  0  0  0
 20 21  2  0  0  0  0
 21 22  1  0  0  0  0
 22 18  1  0  0  0  0
 23 24  2  0  0  0  0
 24 10  1  0  0  0  0
 25  2  1  0  0  0  0
M  END
>  <CHROM.1>
-168.31730479,-116.19332294,-4.80476657,179.69575210,-97.81533603,59.26535044
43.42470336,-42.14444555,1.78328572,-2.99631988,0.97417381,-1.41130871

>  <Name>
design_16

>  <RI>
0

>  <Rbt.Current_Directory>
/home/ziqiaoxu/icml18-jtnn/VAEdesign

>  <Rbt.Executable>
rbdock ($Id: //depot/dev/client3/rdock/2013.1/src/exe/rbdock.cxx#4 $)

>  <Rbt.Library>
libRbt.so (2013.1, Build901 2013/11/27)

>  <Rbt.Parameter_File>
/export/apps/rDock/src/rDock_2013.1_src//data/scripts/dock.prm

>  <Rbt.Receptor>
/home/ziqiaoxu/icml18-jtnn/VAEdesign/targets/RdRp-SARS-CoV-2/pocket_docking.prm

>  <SCORE>
-19.7852

>  <SCORE.INTER>
-19.0269

>  <SCORE.INTER.CONST>
1

>  <SCORE.INTER.POLAR>
-1.5628

>  <SCORE.INTER.REPUL>
0.120173

>  <SCORE.INTER.ROT>
6

>  <SCORE.INTER.VDW>
-25.7142

>  <SCORE.INTER.norm>
-0.761076

>  <SCORE.INTRA>
-0.758318

>  <SCORE.INTRA.DIHEDRAL>
-0.677563

>  <SCORE.INTRA.DIHEDRAL.0>
7.33484

>  <SCORE.INTRA.POLAR>
0

>  <SCORE.INTRA.POLAR.0>
0

>  <SCORE.INTRA.REPUL>
0

>  <SCORE.INTRA.REPUL.0>
0

>  <SCORE.INTRA.VDW>
-0.419536

>  <SCORE.INTRA.VDW.0>
-0.825403

>  <SCORE.INTRA.norm>
-0.0303327

>  <SCORE.RESTR>
0

>  <SCORE.RESTR.CAVITY>
0

>  <SCORE.RESTR.norm>
0

>  <SCORE.SYSTEM>
0

>  <SCORE.SYSTEM.CONST>
0

>  <SCORE.SYSTEM.DIHEDRAL>
0

>  <SCORE.SYSTEM.norm>
0

>  <SCORE.heavy>
25

>  <SCORE.norm>
-0.791409

$$$$
design_0
 OpenBabel05252019093D

 25 26  0  0  0  0  0  0  0  0999 V2000
   39.4649  -46.5714   10.1401 N   0  0  0  0  0  0  0  0  0  0  0  0
   38.5781  -46.7305    9.0473 C   0  0  0  0  0  0  0  0  0  0  0  0
   37.4992  -47.3752    9.2017 O   0  0  0  0  0  0  0  0  0  0  0  0
   38.9428  -46.1314    7.7419 C   0  0  0  0  0  0  0  0  0  0  0  0
   40.3241  -46.3362    7.4283 N   0  0  0  0  0  0  0  0  0  0  0  0
   41.3230  -45.4232    7.8626 C   0  0  0  0  0  0  0  0  0  0  0  0
   40.9915  -44.4281    8.5179 O   0  0  0  0  0  0  0  0  0  0  0  0
   42.6647  -45.6898    7.5264 N   0  0  0  0  0  0  0  0  0  0  0  0
   43.7415  -44.8618    7.9379 C   0  0  0  0  0  0  0  0  0  0  0  0
   43.7464  -44.2457    9.1859 C   0  0  0  0  0  0  0  0  0  0  0  0
   44.8246  -43.5386    9.6528 C   0  0  0  0  0  0  0  0  0  0  0  0
   45.9443  -43.4274    8.8735 C   0  0  0  0  0  0  0  0  0  0  0  0
   45.9460  -44.0424    7.6203 C   0  0  0  0  0  0  0  0  0  0  0  0
   44.8688  -44.7537    7.1394 C   0  0  0  0  0  0  0  0  0  0  0  0
   44.9586  -45.2627    5.7925 C   0  0  0  0  0  0  0  0  0  0  0  0
   43.9394  -45.6627    5.1485 O   0  0  0  0  0  0  0  0  0  0  0  0
   46.1726  -45.3645    5.0699 N   0  0  0  0  0  0  0  0  0  0  0  0
   46.2269  -45.8785    3.7443 C   0  0  0  0  0  0  0  0  0  0  0  0
   45.8753  -44.8488    2.7071 C   0  0  0  0  0  0  0  0  0  0  0  0
   45.3588  -45.5191    1.4896 C   0  0  0  0  0  0  0  0  0  0  0  0
   46.1864  -46.1168    0.5780 C   0  0  0  0  0  0  0  0  0  0  0  0
   45.6736  -46.7266   -0.5658 C   0  0  0  0  0  0  0  0  0  0  0  0
   44.3117  -46.6996   -0.7320 C   0  0  0  0  0  0  0  0  0  0  0  0
   43.4675  -46.1025    0.1773 C   0  0  0  0  0  0  0  0  0  0  0  0
   43.9834  -45.5070    1.2963 C   0  0  0  0  0  0  0  0  0  0  0  0
  1  2  1  0  0  0  0
  2  3  2  0  0  0  0
  2  4  1  0  0  0  0
  4  5  1  0  0  0  0
  5  6  1  0  0  0  0
  6  7  2  0  0  0  0
  6  8  1  0  0  0  0
  8  9  1  0  0  0  0
  9 10  2  0  0  0  0
 10 11  1  0  0  0  0
 11 12  2  0  0  0  0
 12 13  1  0  0  0  0
 13 14  2  0  0  0  0
 14 15  1  0  0  0  0
 14  9  1  0  0  0  0
 15 16  2  0  0  0  0
 15 17  1  0  0  0  0
 17 18  1  0  0  0  0
 18 19  1  0  0  0  0
 19 20  1  0  0  0  0
 20 21  2  0  0  0  0
 21 22  1  0  0  0  0
 22 23  2  0  0  0  0
 23 24  1  0  0  0  0
 24 25  2  0  0  0  0
 25 20  1  0  0  0  0
M  END
>  <CHROM.1>
42.70658390,-87.82440921,36.35007243,11.68137539,82.32727717,-154.64356112
-78.28961966,43.30477944,-45.51959496,5.78672168,2.17553892,0.35142248,1.32551439

>  <Name>
design_0

>  <RI>
0

>  <Rbt.Current_Directory>
/home/ziqiaoxu/icml18-jtnn/VAEdesign

>  <Rbt.Executable>
rbdock ($Id: //depot/dev/client3/rdock/2013.1/src/exe/rbdock.cxx#4 $)

>  <Rbt.Library>
libRbt.so (2013.1, Build901 2013/11/27)

>  <Rbt.Parameter_File>
/export/apps/rDock/src/rDock_2013.1_src//data/scripts/dock.prm

>  <Rbt.Receptor>
/home/ziqiaoxu/icml18-jtnn/VAEdesign/targets/RdRp-SARS-CoV-2/pocket_docking.prm

>  <SCORE>
-18.5401

>  <SCORE.INTER>
-19.996

>  <SCORE.INTER.CONST>
1

>  <SCORE.INTER.POLAR>
-1.96629

>  <SCORE.INTER.REPUL>
0

>  <SCORE.INTER.ROT>
7

>  <SCORE.INTER.VDW>
-25.7106

>  <SCORE.INTER.norm>
-0.79984

>  <SCORE.INTRA>
1.45589

>  <SCORE.INTRA.DIHEDRAL>
4.46079

>  <SCORE.INTRA.DIHEDRAL.0>
7.0511

>  <SCORE.INTRA.POLAR>
0

>  <SCORE.INTRA.POLAR.0>
0

>  <SCORE.INTRA.REPUL>
0

>  <SCORE.INTRA.REPUL.0>
0

>  <SCORE.INTRA.VDW>
-0.774503

>  <SCORE.INTRA.VDW.0>
-1.51521

>  <SCORE.INTRA.norm>
0.0582356

>  <SCORE.RESTR>
0

>  <SCORE.RESTR.CAVITY>
0

>  <SCORE.RESTR.norm>
0

>  <SCORE.SYSTEM>
0

>  <SCORE.SYSTEM.CONST>
0

>  <SCORE.SYSTEM.DIHEDRAL>
0

>  <SCORE.SYSTEM.norm>
0

>  <SCORE.heavy>
25

>  <SCORE.norm>
-0.741604

$$$$
design_15
 OpenBabel05252019093D

 24 26  0  0  0  0  0  0  0  0999 V2000
   40.1441  -45.6719    9.9968 C   0  0  0  0  0  0  0  0  0  0  0  0
   39.9373  -46.5504    8.8428 C   0  0  0  0  0  0  0  0  0  0  0  0
   38.7552  -47.2780    8.7593 C   0  0  0  0  0  0  0  0  0  0  0  0
   38.4534  -48.1334    7.7222 C   0  0  0  0  0  0  0  0  0  0  0  0
   39.3663  -48.2876    6.7001 C   0  0  0  0  0  0  0  0  0  0  0  0
   40.5520  -47.5692    6.7667 C   0  0  0  0  0  0  0  0  0  0  0  0
   40.8429  -46.7118    7.8165 C   0  0  0  0  0  0  0  0  0  0  0  0
   42.1043  -45.9784    7.8425 C   0  0  0  0  0  0  0  0  0  0  0  0
   42.4447  -45.1310    8.8306 N   0  0  0  0  0  0  0  0  0  0  0  0
   43.6324  -44.6445    8.5470 N   0  0  0  0  0  0  0  0  0  0  0  0
   44.0483  -45.1602    7.4113 N   0  0  0  0  0  0  0  0  0  0  0  0
   45.3391  -44.8562    6.7641 C   0  0  0  0  0  0  0  0  0  0  0  0
   45.1438  -44.8527    5.2525 C   0  0  0  0  0  0  0  0  0  0  0  0
   44.4179  -43.9456    4.7843 O   0  0  0  0  0  0  0  0  0  0  0  0
   45.7790  -45.8451    4.5151 N   0  0  0  0  0  0  0  0  0  0  0  0
   45.7515  -46.0475    3.1318 C   0  0  0  0  0  0  0  0  0  0  0  0
   44.7402  -45.5898    2.3499 C   0  0  0  0  0  0  0  0  0  0  0  0
   44.7391  -45.8065    0.9733 C   0  0  0  0  0  0  0  0  0  0  0  0
   45.7638  -46.4890    0.3800 C   0  0  0  0  0  0  0  0  0  0  0  0
   46.7841  -46.9478    1.1876 C   0  0  0  0  0  0  0  0  0  0  0  0
   47.8947  -47.6873    0.5464 C   0  0  0  0  0  0  0  0  0  0  0  0
   46.8125  -46.7513    2.5354 C   0  0  0  0  0  0  0  0  0  0  0  0
   47.9363  -47.2690    3.3415 C   0  0  0  0  0  0  0  0  0  0  0  0
   43.1161  -45.9744    6.9809 N   0  0  0  0  0  0  0  0  0  0  0  0
  1  2  1  0  0  0  0
  2  3  2  0  0  0  0
  3  4  1  0  0  0  0
  4  5  2  0  0  0  0
  5  6  1  0  0  0  0
  6  7  2  0  0  0  0
  7  8  1  0  0  0  0
  7  2  1  0  0  0  0
  8  9  1  0  0  0  0
  9 10  2  0  0  0  0
 10 11  1  0  0  0  0
 11 12  1  0  0  0  0
 11 24  1  0  0  0  0
 12 13  1  0  0  0  0
 13 14  2  0  0  0  0
 13 15  1  0  0  0  0
 15 16  1  0  0  0  0
 16 17  2  0  0  0  0
 17 18  1  0  0  0  0
 18 19  2  0  0  0  0
 19 20  1  0  0  0  0
 20 21  1  0  0  0  0
 20 22  2  0  0  0  0
 22 23  1  0  0  0  0
 22 16  1  0  0  0  0
 24  8  2  0  0  0  0
M  END
>  <CHROM.1>
-0.13829900,-144.36761940,66.45445002,-23.72081600,43.57349295,-46.18959969
5.51162752,-2.44580343,-0.45044271,-2.03481753

>  <Name>
design_15

>  <RI>
0

>  <Rbt.Current_Directory>
/home/ziqiaoxu/icml18-jtnn/VAEdesign

>  <Rbt.Executable>
rbdock ($Id: //depot/dev/client3/rdock/2013.1/src/exe/rbdock.cxx#4 $)

>  <Rbt.Library>
libRbt.so (2013.1, Build901 2013/11/27)

>  <Rbt.Parameter_File>
/export/apps/rDock/src/rDock_2013.1_src//data/scripts/dock.prm

>  <Rbt.Receptor>
/home/ziqiaoxu/icml18-jtnn/VAEdesign/targets/RdRp-SARS-CoV-2/pocket_docking.prm

>  <SCORE>
-17.4976

>  <SCORE.INTER>
-19.2097

>  <SCORE.INTER.CONST>
1

>  <SCORE.INTER.POLAR>
-0.852832

>  <SCORE.INTER.REPUL>
0

>  <SCORE.INTER.ROT>
4

>  <SCORE.INTER.VDW>
-25.7101

>  <SCORE.INTER.norm>
-0.800404

>  <SCORE.INTRA>
1.71208

>  <SCORE.INTRA.DIHEDRAL>
2.07446

>  <SCORE.INTRA.DIHEDRAL.0>
3.7343

>  <SCORE.INTRA.POLAR>
0

>  <SCORE.INTRA.POLAR.0>
0

>  <SCORE.INTRA.REPUL>
0

>  <SCORE.INTRA.REPUL.0>
0

>  <SCORE.INTRA.VDW>
0.674846

>  <SCORE.INTRA.VDW.0>
1.08446

>  <SCORE.INTRA.norm>
0.0713365

>  <SCORE.RESTR>
0

>  <SCORE.RESTR.CAVITY>
0

>  <SCORE.RESTR.norm>
0

>  <SCORE.SYSTEM>
0

>  <SCORE.SYSTEM.CONST>
0

>  <SCORE.SYSTEM.DIHEDRAL>
0

>  <SCORE.SYSTEM.norm>
0

>  <SCORE.heavy>
24

>  <SCORE.norm>
-0.729067

$$$$
design_11
 OpenBabel05252019093D

 25 26  0  0  0  0  0  0  0  0999 V2000
   46.9811  -44.8301    4.5003 C   0  0  0  0  0  0  0  0  0  0  0  0
   47.4414  -46.2045    4.0129 C   0  0  0  0  0  0  0  0  0  0  0  0
   48.0321  -46.1758    2.7160 N   0  0  0  0  0  0  0  0  0  0  0  0
   49.5461  -46.2073    2.7861 C   0  0  0  0  0  0  0  0  0  0  0  0
   49.9302  -47.6571    2.7362 C   0  0  0  0  0  0  0  0  0  0  0  0
   47.5290  -46.1340    1.4312 C   0  0  0  0  0  0  0  0  0  0  0  0
   48.4193  -46.1036    0.4765 O   0  0  0  0  0  0  0  0  0  0  0  0
   46.1638  -46.1174    0.9620 C   0  0  0  0  0  0  0  0  0  0  0  0
   45.7349  -46.2368   -0.3313 C   0  0  0  0  0  0  0  0  0  0  0  0
   44.3909  -46.2261   -0.6851 C   0  0  0  0  0  0  0  0  0  0  0  0
   43.4107  -46.0917    0.2691 C   0  0  0  0  0  0  0  0  0  0  0  0
   43.7881  -45.9670    1.5909 C   0  0  0  0  0  0  0  0  0  0  0  0
   42.7968  -45.8229    2.6324 N   0  0  0  0  0  0  0  0  0  0  0  0
   43.2395  -45.3854    3.8987 C   0  0  0  0  0  0  0  0  0  0  0  0
   42.4362  -45.8445    5.0526 C   0  0  0  0  0  0  0  0  0  0  0  0
   42.7929  -45.3074    6.1592 O   0  0  0  0  0  0  0  0  0  0  0  0
   41.3910  -46.7621    4.9961 N   0  0  0  0  0  0  0  0  0  0  0  0
   40.6318  -47.1816    6.0851 C   0  0  0  0  0  0  0  0  0  0  0  0
   39.7811  -48.2724    5.9084 C   0  0  0  0  0  0  0  0  0  0  0  0
   38.9820  -48.7359    6.9071 C   0  0  0  0  0  0  0  0  0  0  0  0
   39.0193  -48.1029    8.1298 C   0  0  0  0  0  0  0  0  0  0  0  0
   39.8500  -47.0316    8.3141 C   0  0  0  0  0  0  0  0  0  0  0  0
   39.8710  -46.2485    9.8888 Cl  0  0  0  0  0  0  0  0  0  0  0  0
   40.6674  -46.5562    7.2940 C   0  0  0  0  0  0  0  0  0  0  0  0
   45.1149  -45.9815    1.9049 C   0  0  0  0  0  0  0  0  0  0  0  0
  1  2  1  0  0  0  0
  2  3  1  0  0  0  0
  3  4  1  0  0  0  0
  3  6  1  0  0  0  0
  4  5  1  0  0  0  0
  6  7  2  0  0  0  0
  6  8  1  0  0  0  0
  8  9  2  0  0  0  0
  9 10  1  0  0  0  0
 10 11  2  0  0  0  0
 11 12  1  0  0  0  0
 12 13  1  0  0  0  0
 12 25  2  0  0  0  0
 13 14  1  0  0  0  0
 14 15  1  0  0  0  0
 15 16  2  0  0  0  0
 15 17  1  0  0  0  0
 17 18  1  0  0  0  0
 18 19  2  0  0  0  0
 19 20  1  0  0  0  0
 20 21  2  0  0  0  0
 21 22  1  0  0  0  0
 22 23  1  0  0  0  0
 22 24  2  0  0  0  0
 24 18  1  0  0  0  0
 25  8  1  0  0  0  0
M  END
>  <CHROM.1>
100.62856730,90.96675787,-171.49944651,-165.22832930,-151.69251600,-173.01922211
-168.99344401,43.76427781,-46.41652463,4.25514929,-0.71116756,0.10195585
1.57465437

>  <Name>
design_11

>  <RI>
0

>  <Rbt.Current_Directory>
/home/ziqiaoxu/icml18-jtnn/VAEdesign

>  <Rbt.Executable>
rbdock ($Id: //depot/dev/client3/rdock/2013.1/src/exe/rbdock.cxx#4 $)

>  <Rbt.Library>
libRbt.so (2013.1, Build901 2013/11/27)

>  <Rbt.Parameter_File>
/export/apps/rDock/src/rDock_2013.1_src//data/scripts/dock.prm

>  <Rbt.Receptor>
/home/ziqiaoxu/icml18-jtnn/VAEdesign/targets/RdRp-SARS-CoV-2/pocket_docking.prm

>  <SCORE>
-20.3607

>  <SCORE.INTER>
-18.3659

>  <SCORE.INTER.CONST>
1

>  <SCORE.INTER.POLAR>
-1.48802

>  <SCORE.INTER.REPUL>
0

>  <SCORE.INTER.ROT>
7

>  <SCORE.INTER.VDW>
-25.7066

>  <SCORE.INTER.norm>
-0.734635

>  <SCORE.INTRA>
-1.99479

>  <SCORE.INTRA.DIHEDRAL>
-0.858955

>  <SCORE.INTRA.DIHEDRAL.0>
8.62321

>  <SCORE.INTRA.POLAR>
0

>  <SCORE.INTRA.POLAR.0>
0

>  <SCORE.INTRA.REPUL>
0

>  <SCORE.INTRA.REPUL.0>
0

>  <SCORE.INTRA.VDW>
-1.56531

>  <SCORE.INTRA.VDW.0>
2.75415

>  <SCORE.INTRA.norm>
-0.0797917

>  <SCORE.RESTR>
0

>  <SCORE.RESTR.CAVITY>
0

>  <SCORE.RESTR.norm>
0

>  <SCORE.SYSTEM>
0

>  <SCORE.SYSTEM.CONST>
0

>  <SCORE.SYSTEM.DIHEDRAL>
0

>  <SCORE.SYSTEM.norm>
0

>  <SCORE.heavy>
25

>  <SCORE.norm>
-0.814427

$$$$
design_4
 OpenBabel05252019093D

 24 26  0  0  0  0  0  0  0  0999 V2000
   44.7602  -45.1079   -0.1051 C   0  0  0  0  0  0  0  0  0  0  0  0
   43.6525  -44.3459    0.5833 C   0  0  0  0  0  0  0  0  0  0  0  0
   43.4826  -43.0015    0.3264 C   0  0  0  0  0  0  0  0  0  0  0  0
   42.4684  -42.3228    0.9628 C   0  0  0  0  0  0  0  0  0  0  0  0
   41.6067  -42.9705    1.8650 C   0  0  0  0  0  0  0  0  0  0  0  0
   41.7653  -44.2986    2.1256 C   0  0  0  0  0  0  0  0  0  0  0  0
   40.9689  -45.0938    2.9876 N   0  0  0  0  0  0  0  0  0  0  0  0
   40.1600  -44.5707    3.9803 C   0  0  0  0  0  0  0  0  0  0  0  0
   40.0364  -43.3704    4.2208 O   0  0  0  0  0  0  0  0  0  0  0  0
   39.3653  -45.5105    4.8403 C   0  0  0  0  0  0  0  0  0  0  0  0
   40.2222  -47.0694    5.0900 S   0  0  0  0  0  0  0  0  0  0  0  0
   39.4201  -48.0936    6.2851 C   0  0  0  0  0  0  0  0  0  0  0  0
   38.6728  -49.1947    6.0015 N   0  0  0  0  0  0  0  0  0  0  0  0
   38.2140  -49.7357    7.1096 N   0  0  0  0  0  0  0  0  0  0  0  0
   38.6689  -48.9763    8.1304 C   0  0  0  0  0  0  0  0  0  0  0  0
   39.3975  -47.9854    7.6215 N   0  0  0  0  0  0  0  0  0  0  0  0
   40.0584  -46.9590    8.3744 C   0  0  0  0  0  0  0  0  0  0  0  0
   39.5996  -46.6285    9.6518 C   0  0  0  0  0  0  0  0  0  0  0  0
   40.2315  -45.6455   10.3739 C   0  0  0  0  0  0  0  0  0  0  0  0
   41.3224  -44.9680    9.8618 C   0  0  0  0  0  0  0  0  0  0  0  0
   41.9310  -44.0010   10.5926 F   0  0  0  0  0  0  0  0  0  0  0  0
   41.7496  -45.3183    8.5989 C   0  0  0  0  0  0  0  0  0  0  0  0
   41.1435  -46.2967    7.8449 C   0  0  0  0  0  0  0  0  0  0  0  0
   42.8080  -44.9613    1.4614 C   0  0  0  0  0  0  0  0  0  0  0  0
  1  2  1  0  0  0  0
  2  3  2  0  0  0  0
  3  4  1  0  0  0  0
  4  5  2  0  0  0  0
  5  6  1  0  0  0  0
  6  7  1  0  0  0  0
  6 24  2  0  0  0  0
  7  8  1  0  0  0  0
  8  9  2  0  0  0  0
  8 10  1  0  0  0  0
 10 11  1  0  0  0  0
 11 12  1  0  0  0  0
 12 13  2  0  0  0  0
 13 14  1  0  0  0  0
 14 15  2  0  0  0  0
 15 16  1  0  0  0  0
 16 17  1  0  0  0  0
 16 12  1  0  0  0  0
 17 18  2  0  0  0  0
 18 19  1  0  0  0  0
 19 20  2  0  0  0  0
 20 21  1  0  0  0  0
 20 22  1  0  0  0  0
 22 23  2  0  0  0  0
 23 17  1  0  0  0  0
 24  2  1  0  0  0  0
M  END
>  <CHROM.1>
-19.52612242,32.37511236,171.60158661,104.69413644,156.26711681,40.87410790
-45.73869344,5.40028694,0.92684678,-0.99269362,-1.74971157

>  <Name>
design_4

>  <RI>
0

>  <Rbt.Current_Directory>
/home/ziqiaoxu/icml18-jtnn/VAEdesign

>  <Rbt.Executable>
rbdock ($Id: //depot/dev/client3/rdock/2013.1/src/exe/rbdock.cxx#4 $)

>  <Rbt.Library>
libRbt.so (2013.1, Build901 2013/11/27)

>  <Rbt.Parameter_File>
/export/apps/rDock/src/rDock_2013.1_src//data/scripts/dock.prm

>  <Rbt.Receptor>
/home/ziqiaoxu/icml18-jtnn/VAEdesign/targets/RdRp-SARS-CoV-2/pocket_docking.prm

>  <SCORE>
-20.5844

>  <SCORE.INTER>
-18.818

>  <SCORE.INTER.CONST>
1

>  <SCORE.INTER.POLAR>
-1.06241

>  <SCORE.INTER.REPUL>
0.0201107

>  <SCORE.INTER.ROT>
5

>  <SCORE.INTER.VDW>
-25.7064

>  <SCORE.INTER.norm>
-0.784082

>  <SCORE.INTRA>
-1.76638

>  <SCORE.INTRA.DIHEDRAL>
-4.8454

>  <SCORE.INTRA.DIHEDRAL.0>
13.4462

>  <SCORE.INTRA.POLAR>
0

>  <SCORE.INTRA.POLAR.0>
0

>  <SCORE.INTRA.REPUL>
0

>  <SCORE.INTRA.REPUL.0>
0

>  <SCORE.INTRA.VDW>
0.656326

>  <SCORE.INTRA.VDW.0>
-1.04447

>  <SCORE.INTRA.norm>
-0.073599

>  <SCORE.RESTR>
0

>  <SCORE.RESTR.CAVITY>
0

>  <SCORE.RESTR.norm>
0

>  <SCORE.SYSTEM>
0

>  <SCORE.SYSTEM.CONST>
0

>  <SCORE.SYSTEM.DIHEDRAL>
0

>  <SCORE.SYSTEM.norm>
0

>  <SCORE.heavy>
24

>  <SCORE.norm>
-0.857681

$$$$
design_2
 OpenBabel05252019093D

 23 25  0  0  0  0  0  0  0  0999 V2000
   37.5794  -48.7646    5.7030 O   0  0  0  0  0  0  0  0  0  0  0  0
   37.8286  -47.5120    5.7686 C   0  0  0  0  0  0  0  0  0  0  0  0
   39.2451  -47.1186    5.9462 C   0  0  0  0  0  0  0  0  0  0  0  0
   39.4766  -46.6638    7.3766 C   0  0  0  0  0  0  0  0  0  0  0  0
   38.8990  -47.3438    8.4222 C   0  0  0  0  0  0  0  0  0  0  0  0
   39.4595  -46.4568    9.7689 S   0  0  0  0  0  0  0  0  0  0  0  0
   40.3875  -45.2835    8.9314 C   0  0  0  0  0  0  0  0  0  0  0  0
   41.1995  -44.1361    9.4792 C   0  0  0  0  0  0  0  0  0  0  0  0
   42.5102  -44.4856    9.6492 O   0  0  0  0  0  0  0  0  0  0  0  0
   43.3896  -44.6964    8.6194 C   0  0  0  0  0  0  0  0  0  0  0  0
   44.6744  -44.2145    8.6224 C   0  0  0  0  0  0  0  0  0  0  0  0
   45.5202  -44.4646    7.5359 C   0  0  0  0  0  0  0  0  0  0  0  0
   45.0955  -45.1917    6.4462 C   0  0  0  0  0  0  0  0  0  0  0  0
   45.9454  -45.4166    5.4048 F   0  0  0  0  0  0  0  0  0  0  0  0
   43.8151  -45.6797    6.4292 C   0  0  0  0  0  0  0  0  0  0  0  0
   42.9907  -45.4350    7.4896 C   0  0  0  0  0  0  0  0  0  0  0  0
   40.2140  -45.6393    7.6696 N   0  0  0  0  0  0  0  0  0  0  0  0
   36.7564  -46.6197    5.6687 N   0  0  0  0  0  0  0  0  0  0  0  0
   36.9833  -45.2157    5.7384 C   0  0  0  0  0  0  0  0  0  0  0  0
   38.1051  -44.5420    5.9333 N   0  0  0  0  0  0  0  0  0  0  0  0
   38.1043  -43.2501    5.9641 C   0  0  0  0  0  0  0  0  0  0  0  0
   36.9005  -42.6095    5.7876 C   0  0  0  0  0  0  0  0  0  0  0  0
   35.8366  -43.9258    5.5866 S   0  0  0  0  0  0  0  0  0  0  0  0
  1  2  2  0  0  0  0
  2  3  1  0  0  0  0
  2 18  1  0  0  0  0
  3  4  1  0  0  0  0
  4  5  2  0  0  0  0
  5  6  1  0  0  0  0
  6  7  1  0  0  0  0
  7  8  1  0  0  0  0
  7 17  2  0  0  0  0
  8  9  1  0  0  0  0
  9 10  1  0  0  0  0
 10 11  2  0  0  0  0
 11 12  1  0  0  0  0
 12 13  2  0  0  0  0
 13 14  1  0  0  0  0
 13 15  1  0  0  0  0
 15 16  2  0  0  0  0
 16 10  1  0  0  0  0
 17  4  1  0  0  0  0
 18 19  1  0  0  0  0
 19 20  2  0  0  0  0
 20 21  1  0  0  0  0
 21 22  2  0  0  0  0
 22 23  1  0  0  0  0
 23 19  1  0  0  0  0
M  END
>  <CHROM.1>
-105.06833601,41.05329079,94.02984047,71.04266271,136.37512255,-2.31712841
40.21902583,-45.41704745,7.16017872,2.99658182,-0.14876746,-1.02811289

>  <Name>
design_2

>  <RI>
0

>  <Rbt.Current_Directory>
/home/ziqiaoxu/icml18-jtnn/VAEdesign

>  <Rbt.Executable>
rbdock ($Id: //depot/dev/client3/rdock/2013.1/src/exe/rbdock.cxx#4 $)

>  <Rbt.Library>
libRbt.so (2013.1, Build901 2013/11/27)

>  <Rbt.Parameter_File>
/export/apps/rDock/src/rDock_2013.1_src//data/scripts/dock.prm

>  <Rbt.Receptor>
/home/ziqiaoxu/icml18-jtnn/VAEdesign/targets/RdRp-SARS-CoV-2/pocket_docking.prm

>  <SCORE>
-15.9028

>  <SCORE.INTER>
-16.3982

>  <SCORE.INTER.CONST>
1

>  <SCORE.INTER.POLAR>
-0.615426

>  <SCORE.INTER.REPUL>
0

>  <SCORE.INTER.ROT>
6

>  <SCORE.INTER.VDW>
-25.7058

>  <SCORE.INTER.norm>
-0.712965

>  <SCORE.INTRA>
0.49539

>  <SCORE.INTRA.DIHEDRAL>
3.55772

>  <SCORE.INTRA.DIHEDRAL.0>
4.15759

>  <SCORE.INTRA.POLAR>
0

>  <SCORE.INTRA.POLAR.0>
0

>  <SCORE.INTRA.REPUL>
0

>  <SCORE.INTRA.REPUL.0>
0

>  <SCORE.INTRA.VDW>
-1.28347

>  <SCORE.INTRA.VDW.0>
-0.436307

>  <SCORE.INTRA.norm>
0.0215387

>  <SCORE.RESTR>
0

>  <SCORE.RESTR.CAVITY>
0

>  <SCORE.RESTR.norm>
0

>  <SCORE.SYSTEM>
0

>  <SCORE.SYSTEM.CONST>
0

>  <SCORE.SYSTEM.DIHEDRAL>
0

>  <SCORE.SYSTEM.norm>
0

>  <SCORE.heavy>
23

>  <SCORE.norm>
-0.691427

$$$$
design_15
 OpenBabel05252019093D

 24 26  0  0  0  0  0  0  0  0999 V2000
   39.8565  -48.1162    6.3895 C   0  0  0  0  0  0  0  0  0  0  0  0
   40.1716  -47.2779    7.5748 C   0  0  0  0  0  0  0  0  0  0  0  0
   39.2333  -47.2180    8.5969 C   0  0  0  0  0  0  0  0  0  0  0  0
   39.4515  -46.4448    9.6578 N   0  0  0  0  0  0  0  0  0  0  0  0
   40.5942  -45.7073    9.7477 C   0  0  0  0  0  0  0  0  0  0  0  0
   40.7087  -45.0086   10.7920 O   0  0  0  0  0  0  0  0  0  0  0  0
   41.5609  -45.7155    8.7828 C   0  0  0  0  0  0  0  0  0  0  0  0
   42.7224  -44.8378    8.8610 C   0  0  0  0  0  0  0  0  0  0  0  0
   42.7231  -43.9419    9.7364 O   0  0  0  0  0  0  0  0  0  0  0  0
   43.8356  -44.9655    8.0064 N   0  0  0  0  0  0  0  0  0  0  0  0
   45.0201  -44.2385    7.9201 C   0  0  0  0  0  0  0  0  0  0  0  0
   45.9399  -44.4246    6.8036 C   0  0  0  0  0  0  0  0  0  0  0  0
   47.1491  -43.8104    6.6648 C   0  0  0  0  0  0  0  0  0  0  0  0
   47.8969  -44.0181    5.5317 C   0  0  0  0  0  0  0  0  0  0  0  0
   47.4325  -44.8513    4.5205 C   0  0  0  0  0  0  0  0  0  0  0  0
   46.2212  -45.4883    4.6206 C   0  0  0  0  0  0  0  0  0  0  0  0
   45.7299  -46.2879    3.6802 O   0  0  0  0  0  0  0  0  0  0  0  0
   46.1585  -46.8748    2.5324 C   0  0  0  0  0  0  0  0  0  0  0  0
   47.3392  -47.7687    2.6736 C   0  0  0  0  0  0  0  0  0  0  0  0
   47.8127  -47.9291    1.2280 C   0  0  0  0  0  0  0  0  0  0  0  0
   47.6251  -46.5527    0.6664 C   0  0  0  0  0  0  0  0  0  0  0  0
   46.4695  -45.9085    1.4069 C   0  0  0  0  0  0  0  0  0  0  0  0
   45.5021  -45.2559    5.7701 C   0  0  0  0  0  0  0  0  0  0  0  0
   41.3071  -46.5395    7.6779 C   0  0  0  0  0  0  0  0  0  0  0  0
  1  2  1  0  0  0  0
  2  3  2  0  0  0  0
  3  4  1  0  0  0  0
  4  5  1  0  0  0  0
  5  6  2  0  0  0  0
  5  7  1  0  0  0  0
  7  8  1  0  0  0  0
  7 24  2  0  0  0  0
  8  9  2  0  0  0  0
  8 10  1  0  0  0  0
 10 11  1  0  0  0  0
 11 12  1  0  0  0  0
 12 13  2  0  0  0  0
 13 14  1  0  0  0  0
 14 15  2  0  0  0  0
 15 16  1  0  0  0  0
 16 17  1  0  0  0  0
 16 23  2  0  0  0  0
 17 18  1  0  0  0  0
 18 19  1  0  0  0  0
 19 20  1  0  0  0  0
 20 21  1  0  0  0  0
 21 22  1  0  0  0  0
 22 18  1  0  0  0  0
 23 12  1  0  0  0  0
 24  2  1  0  0  0  0
M  END
>  <CHROM.1>
-9.80200764,-169.94590817,-176.61549868,9.83031953,58.37246619,44.08037472
-45.80974206,6.24514301,2.48735173,0.46908138,0.98832646

>  <Name>
design_15

>  <RI>
0

>  <Rbt.Current_Directory>
/home/ziqiaoxu/icml18-jtnn/VAEdesign

>  <Rbt.Executable>
rbdock ($Id: //depot/dev/client3/rdock/2013.1/src/exe/rbdock.cxx#4 $)

>  <Rbt.Library>
libRbt.so (2013.1, Build901 2013/11/27)

>  <Rbt.Parameter_File>
/export/apps/rDock/src/rDock_2013.1_src//data/scripts/dock.prm

>  <Rbt.Receptor>
/home/ziqiaoxu/icml18-jtnn/VAEdesign/targets/RdRp-SARS-CoV-2/pocket_docking.prm

>  <SCORE>
-19.7586

>  <SCORE.INTER>
-18.4301

>  <SCORE.INTER.CONST>
1

>  <SCORE.INTER.POLAR>
-0.975241

>  <SCORE.INTER.REPUL>
0.0381446

>  <SCORE.INTER.ROT>
5

>  <SCORE.INTER.VDW>
-25.705

>  <SCORE.INTER.norm>
-0.767921

>  <SCORE.INTRA>
-1.32852

>  <SCORE.INTRA.DIHEDRAL>
-6.63267

>  <SCORE.INTRA.DIHEDRAL.0>
9.42504

>  <SCORE.INTRA.POLAR>
0

>  <SCORE.INTRA.POLAR.0>
0

>  <SCORE.INTRA.REPUL>
0

>  <SCORE.INTRA.REPUL.0>
0

>  <SCORE.INTRA.VDW>
1.98782

>  <SCORE.INTRA.VDW.0>
-2.30734

>  <SCORE.INTRA.norm>
-0.055355

>  <SCORE.RESTR>
0

>  <SCORE.RESTR.CAVITY>
0

>  <SCORE.RESTR.norm>
0

>  <SCORE.SYSTEM>
0

>  <SCORE.SYSTEM.CONST>
0

>  <SCORE.SYSTEM.DIHEDRAL>
0

>  <SCORE.SYSTEM.norm>
0

>  <SCORE.heavy>
24

>  <SCORE.norm>
-0.823276

$$$$
design_3
 OpenBabel05252019093D

 24 27  0  0  0  0  0  0  0  0999 V2000
   41.2809  -44.4566   10.8911 C   0  0  0  0  0  0  0  0  0  0  0  0
   40.7823  -45.4230    9.8402 C   0  0  0  0  0  0  0  0  0  0  0  0
   39.6920  -46.1675    9.8791 N   0  0  0  0  0  0  0  0  0  0  0  0
   39.5785  -46.9138    8.7426 C   0  0  0  0  0  0  0  0  0  0  0  0
   38.6118  -47.8112    8.3446 C   0  0  0  0  0  0  0  0  0  0  0  0
   38.7258  -48.4275    7.1240 C   0  0  0  0  0  0  0  0  0  0  0  0
   39.8171  -48.1394    6.2990 C   0  0  0  0  0  0  0  0  0  0  0  0
   40.7852  -47.2457    6.6896 C   0  0  0  0  0  0  0  0  0  0  0  0
   40.6672  -46.6227    7.9318 C   0  0  0  0  0  0  0  0  0  0  0  0
   41.4122  -45.6995    8.6156 C   0  0  0  0  0  0  0  0  0  0  0  0
   42.6189  -45.0359    8.2322 C   0  0  0  0  0  0  0  0  0  0  0  0
   42.8743  -43.8974    8.7601 O   0  0  0  0  0  0  0  0  0  0  0  0
   43.5594  -45.5443    7.3161 N   0  0  0  0  0  0  0  0  0  0  0  0
   44.7668  -44.7701    6.9860 C   0  0  0  0  0  0  0  0  0  0  0  0
   44.5911  -44.1024    5.6543 C   0  0  0  0  0  0  0  0  0  0  0  0
   45.1869  -44.8626    4.5276 C   0  0  0  0  0  0  0  0  0  0  0  0
   45.0702  -44.6374    3.2222 N   0  0  0  0  0  0  0  0  0  0  0  0
   45.7871  -45.5888    2.5998 C   0  0  0  0  0  0  0  0  0  0  0  0
   46.0174  -45.8372    1.2541 C   0  0  0  0  0  0  0  0  0  0  0  0
   46.8005  -46.8888    0.8220 C   0  0  0  0  0  0  0  0  0  0  0  0
   47.3775  -47.7264    1.7638 C   0  0  0  0  0  0  0  0  0  0  0  0
   47.1450  -47.4744    3.0954 C   0  0  0  0  0  0  0  0  0  0  0  0
   46.3630  -46.4246    3.5334 C   0  0  0  0  0  0  0  0  0  0  0  0
   45.9761  -45.9541    4.7321 N   0  0  0  0  0  0  0  0  0  0  0  0
  1  2  1  0  0  0  0
  2  3  1  0  0  0  0
  3  4  1  0  0  0  0
  4  5  2  0  0  0  0
  5  6  1  0  0  0  0
  6  7  2  0  0  0  0
  7  8  1  0  0  0  0
  8  9  2  0  0  0  0
  9 10  1  0  0  0  0
  9  4  1  0  0  0  0
 10 11  1  0  0  0  0
 10  2  2  0  0  0  0
 11 12  2  0  0  0  0
 11 13  1  0  0  0  0
 13 14  1  0  0  0  0
 14 15  1  0  0  0  0
 15 16  1  0  0  0  0
 16 17  2  0  0  0  0
 17 18  1  0  0  0  0
 18 19  2  0  0  0  0
 19 20  1  0  0  0  0
 20 21  2  0  0  0  0
 21 22  1  0  0  0  0
 22 23  2  0  0  0  0
 23 24  1  0  0  0  0
 23 18  1  0  0  0  0
 24 16  1  0  0  0  0
M  END
>  <CHROM.1>
-23.61457715,-101.97390566,-96.36397395,171.11656092,43.15257979,-46.03069784
6.17651083,-2.53013977,-0.55092679,-2.20380298

>  <Name>
design_3

>  <RI>
0

>  <Rbt.Current_Directory>
/home/ziqiaoxu/icml18-jtnn/VAEdesign

>  <Rbt.Executable>
rbdock ($Id: //depot/dev/client3/rdock/2013.1/src/exe/rbdock.cxx#4 $)

>  <Rbt.Library>
libRbt.so (2013.1, Build901 2013/11/27)

>  <Rbt.Parameter_File>
/export/apps/rDock/src/rDock_2013.1_src//data/scripts/dock.prm

>  <Rbt.Receptor>
/home/ziqiaoxu/icml18-jtnn/VAEdesign/targets/RdRp-SARS-CoV-2/pocket_docking.prm

>  <SCORE>
-20.64

>  <SCORE.INTER>
-22.8008

>  <SCORE.INTER.CONST>
1

>  <SCORE.INTER.POLAR>
-1.91086

>  <SCORE.INTER.REPUL>
0

>  <SCORE.INTER.ROT>
4

>  <SCORE.INTER.VDW>
-25.7039

>  <SCORE.INTER.norm>
-0.950033

>  <SCORE.INTRA>
2.1608

>  <SCORE.INTRA.DIHEDRAL>
3.51133

>  <SCORE.INTRA.DIHEDRAL.0>
4.73556

>  <SCORE.INTRA.POLAR>
0

>  <SCORE.INTRA.POLAR.0>
0

>  <SCORE.INTRA.REPUL>
0

>  <SCORE.INTRA.REPUL.0>
0

>  <SCORE.INTRA.VDW>
0.405132

>  <SCORE.INTRA.VDW.0>
0.0099404

>  <SCORE.INTRA.norm>
0.0900332

>  <SCORE.RESTR>
0

>  <SCORE.RESTR.CAVITY>
0

>  <SCORE.RESTR.norm>
0

>  <SCORE.SYSTEM>
0

>  <SCORE.SYSTEM.CONST>
0

>  <SCORE.SYSTEM.DIHEDRAL>
0

>  <SCORE.SYSTEM.norm>
0

>  <SCORE.heavy>
24

>  <SCORE.norm>
-0.86

$$$$
design_4
 OpenBabel05252019093D

 20 21  0  0  0  0  0  0  0  0999 V2000
   43.9147  -44.7323    7.0791 C   0  0  0  0  0  0  0  0  0  0  0  0
   42.6406  -45.3969    7.4940 C   0  0  0  0  0  0  0  0  0  0  0  0
   42.0646  -45.1374    8.7180 C   0  0  0  0  0  0  0  0  0  0  0  0
   40.8902  -45.7689    9.0654 C   0  0  0  0  0  0  0  0  0  0  0  0
   40.2724  -45.4851   10.3884 C   0  0  0  0  0  0  0  0  0  0  0  0
   40.2387  -46.6640    8.2504 C   0  0  0  0  0  0  0  0  0  0  0  0
   38.9923  -47.3059    8.6879 C   0  0  0  0  0  0  0  0  0  0  0  0
   40.8154  -46.9344    7.0051 C   0  0  0  0  0  0  0  0  0  0  0  0
   39.9618  -48.0463    5.9886 S   0  0  0  0  0  0  0  0  0  0  0  0
   40.6162  -48.0211    4.6329 O   0  0  0  0  0  0  0  0  0  0  0  0
   40.0856  -49.4524    6.5853 O   0  0  0  0  0  0  0  0  0  0  0  0
   38.2848  -47.7292    5.8833 N   0  0  0  0  0  0  0  0  0  0  0  0
   37.7889  -46.3933    5.8496 C   0  0  0  0  0  0  0  0  0  0  0  0
   38.5732  -45.2694    5.9479 C   0  0  0  0  0  0  0  0  0  0  0  0
   38.0366  -43.9800    5.9056 C   0  0  0  0  0  0  0  0  0  0  0  0
   36.6946  -43.7837    5.7629 C   0  0  0  0  0  0  0  0  0  0  0  0
   36.0222  -42.1664    5.7098 Cl  0  0  0  0  0  0  0  0  0  0  0  0
   35.8965  -44.9062    5.6630 C   0  0  0  0  0  0  0  0  0  0  0  0
   36.4109  -46.1843    5.7031 C   0  0  0  0  0  0  0  0  0  0  0  0
   41.9937  -46.2963    6.6642 C   0  0  0  0  0  0  0  0  0  0  0  0
  1  2  1  0  0  0  0
  2  3  2  0  0  0  0
  3  4  1  0  0  0  0
  4  5  1  0  0  0  0
  4  6  2  0  0  0  0
  6  7  1  0  0  0  0
  6  8  1  0  0  0  0
  8  9  1  0  0  0  0
  8 20  2  0  0  0  0
  9 10  2  0  0  0  0
  9 11  2  0  0  0  0
  9 12  1  0  0  0  0
 12 13  1  0  0  0  0
 13 14  2  0  0  0  0
 14 15  1  0  0  0  0
 15 16  2  0  0  0  0
 16 17  1  0  0  0  0
 16 18  1  0  0  0  0
 18 19  2  0  0  0  0
 19 13  1  0  0  0  0
 20  2  1  0  0  0  0
M  END
>  <CHROM.1>
170.80279826,37.40222398,-2.61365378,39.31473924,-45.90040611,6.71251515
-0.41770738,-0.47336331,0.32155236

>  <Name>
design_4

>  <RI>
0

>  <Rbt.Current_Directory>
/home/ziqiaoxu/icml18-jtnn/VAEdesign

>  <Rbt.Executable>
rbdock ($Id: //depot/dev/client3/rdock/2013.1/src/exe/rbdock.cxx#4 $)

>  <Rbt.Library>
libRbt.so (2013.1, Build901 2013/11/27)

>  <Rbt.Parameter_File>
/export/apps/rDock/src/rDock_2013.1_src//data/scripts/dock.prm

>  <Rbt.Receptor>
/home/ziqiaoxu/icml18-jtnn/VAEdesign/targets/RdRp-SARS-CoV-2/pocket_docking.prm

>  <SCORE>
-20.3792

>  <SCORE.INTER>
-17.3028

>  <SCORE.INTER.CONST>
1

>  <SCORE.INTER.POLAR>
0

>  <SCORE.INTER.REPUL>
0

>  <SCORE.INTER.ROT>
3

>  <SCORE.INTER.VDW>
-25.7028

>  <SCORE.INTER.norm>
-0.865141

>  <SCORE.INTRA>
-3.07642

>  <SCORE.INTRA.DIHEDRAL>
-5.39574

>  <SCORE.INTRA.DIHEDRAL.0>
7.84077

>  <SCORE.INTRA.POLAR>
0

>  <SCORE.INTRA.POLAR.0>
0

>  <SCORE.INTRA.REPUL>
0

>  <SCORE.INTRA.REPUL.0>
0

>  <SCORE.INTRA.VDW>
-0.378547

>  <SCORE.INTRA.VDW.0>
-1.64366

>  <SCORE.INTRA.norm>
-0.153821

>  <SCORE.RESTR>
0

>  <SCORE.RESTR.CAVITY>
0

>  <SCORE.RESTR.norm>
0

>  <SCORE.SYSTEM>
0

>  <SCORE.SYSTEM.CONST>
0

>  <SCORE.SYSTEM.DIHEDRAL>
0

>  <SCORE.SYSTEM.norm>
0

>  <SCORE.heavy>
20

>  <SCORE.norm>
-1.01896

$$$$
design_9
 OpenBabel05252019093D

 25 26  0  0  0  0  0  0  0  0999 V2000
   40.4282  -45.4588    9.7336 C   0  0  0  0  0  0  0  0  0  0  0  0
   39.7380  -44.2364   10.0716 N   0  0  0  0  0  0  0  0  0  0  0  0
   40.2480  -42.9950    9.6392 C   0  0  0  0  0  0  0  0  0  0  0  0
   41.2988  -42.9560    8.9628 O   0  0  0  0  0  0  0  0  0  0  0  0
   39.5520  -41.7385    9.9779 C   0  0  0  0  0  0  0  0  0  0  0  0
   39.7162  -40.6974    8.9545 C   0  0  0  0  0  0  0  0  0  0  0  0
   39.0547  -40.8506    7.7587 C   0  0  0  0  0  0  0  0  0  0  0  0
   39.1672  -39.8927    6.7361 C   0  0  0  0  0  0  0  0  0  0  0  0
   39.9453  -38.7665    6.8980 C   0  0  0  0  0  0  0  0  0  0  0  0
   40.1250  -37.7489    5.9426 N   0  0  0  0  0  0  0  0  0  0  0  0
   39.6016  -37.6559    4.6510 C   0  0  0  0  0  0  0  0  0  0  0  0
   38.8683  -38.4907    4.1276 O   0  0  0  0  0  0  0  0  0  0  0  0
   39.9718  -36.4246    3.8358 C   0  0  0  0  0  0  0  0  0  0  0  0
   40.8555  -36.9007    2.7466 C   0  0  0  0  0  0  0  0  0  0  0  0
   40.3597  -37.6984    1.6267 C   0  0  0  0  0  0  0  0  0  0  0  0
   40.9640  -38.9403    1.3713 N   0  0  0  0  0  0  0  0  0  0  0  0
   42.2610  -39.1963    0.9606 C   0  0  0  0  0  0  0  0  0  0  0  0
   43.1068  -38.3014    0.7248 O   0  0  0  0  0  0  0  0  0  0  0  0
   42.6762  -40.6152    0.7890 C   0  0  0  0  0  0  0  0  0  0  0  0
   41.8981  -41.7024    1.1062 C   0  0  0  0  0  0  0  0  0  0  0  0
   42.6413  -42.8446    0.8006 C   0  0  0  0  0  0  0  0  0  0  0  0
   43.8355  -42.3637    0.3123 C   0  0  0  0  0  0  0  0  0  0  0  0
   43.8087  -41.0475    0.3249 O   0  0  0  0  0  0  0  0  0  0  0  0
   40.6081  -38.6338    8.1234 C   0  0  0  0  0  0  0  0  0  0  0  0
   40.4934  -39.5722    9.1158 C   0  0  0  0  0  0  0  0  0  0  0  0
  1  2  1  0  0  0  0
  2  3  1  0  0  0  0
  3  4  2  0  0  0  0
  3  5  1  0  0  0  0
  5  6  1  0  0  0  0
  6  7  2  0  0  0  0
  7  8  1  0  0  0  0
  8  9  2  0  0  0  0
  9 10  1  0  0  0  0
  9 24  1  0  0  0  0
 10 11  1  0  0  0  0
 11 12  2  0  0  0  0
 11 13  1  0  0  0  0
 13 14  1  0  0  0  0
 14 15  1  0  0  0  0
 15 16  1  0  0  0  0
 16 17  1  0  0  0  0
 17 18  2  0  0  0  0
 17 19  1  0  0  0  0
 19 20  2  0  0  0  0
 20 21  1  0  0  0  0
 21 22  2  0  0  0  0
 22 23  1  0  0  0  0
 23 19  1  0  0  0  0
 24 25  2  0  0  0  0
 25  6  1  0  0  0  0
M  END
>  <CHROM.1>
-148.98494177,71.86315112,-1.34035483,111.10150062,71.04992376,-124.39695884
-65.59493407,-5.24797933,40.85995134,-40.24067244,4.99392942,-2.12763891
1.09777733,-0.75046475

>  <Name>
design_9

>  <RI>
0

>  <Rbt.Current_Directory>
/home/ziqiaoxu/icml18-jtnn/VAEdesign

>  <Rbt.Executable>
rbdock ($Id: //depot/dev/client3/rdock/2013.1/src/exe/rbdock.cxx#4 $)

>  <Rbt.Library>
libRbt.so (2013.1, Build901 2013/11/27)

>  <Rbt.Parameter_File>
/export/apps/rDock/src/rDock_2013.1_src//data/scripts/dock.prm

>  <Rbt.Receptor>
/home/ziqiaoxu/icml18-jtnn/VAEdesign/targets/RdRp-SARS-CoV-2/pocket_docking.prm

>  <SCORE>
-19.3242

>  <SCORE.INTER>
-20.6594

>  <SCORE.INTER.CONST>
1

>  <SCORE.INTER.POLAR>
-2.45785

>  <SCORE.INTER.REPUL>
0

>  <SCORE.INTER.ROT>
8

>  <SCORE.INTER.VDW>
-25.7027

>  <SCORE.INTER.norm>
-0.826377

>  <SCORE.INTRA>
1.3352

>  <SCORE.INTRA.DIHEDRAL>
7.50709

>  <SCORE.INTRA.DIHEDRAL.0>
4.39458

>  <SCORE.INTRA.POLAR>
0

>  <SCORE.INTRA.POLAR.0>
0

>  <SCORE.INTRA.REPUL>
0

>  <SCORE.INTRA.REPUL.0>
0

>  <SCORE.INTRA.VDW>
-2.41835

>  <SCORE.INTRA.VDW.0>
0.742646

>  <SCORE.INTRA.norm>
0.0534078

>  <SCORE.RESTR>
0

>  <SCORE.RESTR.CAVITY>
0

>  <SCORE.RESTR.norm>
0

>  <SCORE.SYSTEM>
0

>  <SCORE.SYSTEM.CONST>
0

>  <SCORE.SYSTEM.DIHEDRAL>
0

>  <SCORE.SYSTEM.norm>
0

>  <SCORE.heavy>
25

>  <SCORE.norm>
-0.772969

$$$$
design_9
 OpenBabel05252019093D

 23 24  0  0  0  0  0  0  0  0999 V2000
   39.9117  -36.5008    3.2595 C   0  0  0  0  0  0  0  0  0  0  0  0
   39.6253  -37.5856    4.2697 C   0  0  0  0  0  0  0  0  0  0  0  0
   38.8657  -38.5093    3.9238 O   0  0  0  0  0  0  0  0  0  0  0  0
   40.2151  -37.5116    5.5366 N   0  0  0  0  0  0  0  0  0  0  0  0
   40.0183  -38.4522    6.5710 C   0  0  0  0  0  0  0  0  0  0  0  0
   39.0911  -39.4442    6.5524 C   0  0  0  0  0  0  0  0  0  0  0  0
   38.9755  -40.3354    7.5797 C   0  0  0  0  0  0  0  0  0  0  0  0
   39.8122  -40.2855    8.7309 C   0  0  0  0  0  0  0  0  0  0  0  0
   39.6579  -41.2675    9.6729 N   0  0  0  0  0  0  0  0  0  0  0  0
   39.5046  -42.2150   10.5860 C   0  0  0  0  0  0  0  0  0  0  0  0
   38.6438  -42.2982   11.4963 O   0  0  0  0  0  0  0  0  0  0  0  0
   40.4792  -43.4002   10.5861 C   0  0  0  0  0  0  0  0  0  0  0  0
   39.7736  -44.5462   10.1002 N   0  0  0  0  0  0  0  0  0  0  0  0
   40.2430  -45.4040    9.0701 C   0  0  0  0  0  0  0  0  0  0  0  0
   41.4217  -45.1733    8.3908 C   0  0  0  0  0  0  0  0  0  0  0  0
   41.8469  -46.0220    7.3787 C   0  0  0  0  0  0  0  0  0  0  0  0
   41.0664  -47.1118    7.0568 C   0  0  0  0  0  0  0  0  0  0  0  0
   39.8777  -47.3904    7.7035 C   0  0  0  0  0  0  0  0  0  0  0  0
   39.0674  -48.5376    7.3494 C   0  0  0  0  0  0  0  0  0  0  0  0
   38.3964  -49.4519    7.0570 N   0  0  0  0  0  0  0  0  0  0  0  0
   39.5112  -46.5066    8.7012 C   0  0  0  0  0  0  0  0  0  0  0  0
   40.7399  -39.2752    8.7290 C   0  0  0  0  0  0  0  0  0  0  0  0
   40.8600  -38.3768    7.6977 C   0  0  0  0  0  0  0  0  0  0  0  0
  1  2  1  0  0  0  0
  2  3  2  0  0  0  0
  2  4  1  0  0  0  0
  4  5  1  0  0  0  0
  5  6  2  0  0  0  0
  6  7  1  0  0  0  0
  7  8  2  0  0  0  0
  8  9  1  0  0  0  0
  8 22  1  0  0  0  0
  9 10  1  0  0  0  0
 10 11  2  0  0  0  0
 10 12  1  0  0  0  0
 12 13  1  0  0  0  0
 13 14  1  0  0  0  0
 14 15  2  0  0  0  0
 15 16  1  0  0  0  0
 16 17  2  0  0  0  0
 17 18  1  0  0  0  0
 18 19  1  0  0  0  0
 18 21  2  0  0  0  0
 19 20  3  0  0  0  0
 21 14  1  0  0  0  0
 22 23  2  0  0  0  0
 23  5  1  0  0  0  0
M  END
>  <CHROM.1>
-9.97508042,-80.24614754,-107.37138840,129.90339258,-2.84398134,39.86957750
-42.32675814,7.73290127,2.52620994,-1.56248122,0.65594458

>  <Name>
design_9

>  <RI>
0

>  <Rbt.Current_Directory>
/home/ziqiaoxu/icml18-jtnn/VAEdesign

>  <Rbt.Executable>
rbdock ($Id: //depot/dev/client3/rdock/2013.1/src/exe/rbdock.cxx#4 $)

>  <Rbt.Library>
libRbt.so (2013.1, Build901 2013/11/27)

>  <Rbt.Parameter_File>
/export/apps/rDock/src/rDock_2013.1_src//data/scripts/dock.prm

>  <Rbt.Receptor>
/home/ziqiaoxu/icml18-jtnn/VAEdesign/targets/RdRp-SARS-CoV-2/pocket_docking.prm

>  <SCORE>
-19.781

>  <SCORE.INTER>
-21.0424

>  <SCORE.INTER.CONST>
1

>  <SCORE.INTER.POLAR>
-1.69401

>  <SCORE.INTER.REPUL>
0.00260134

>  <SCORE.INTER.ROT>
5

>  <SCORE.INTER.VDW>
-25.6957

>  <SCORE.INTER.norm>
-0.914886

>  <SCORE.INTRA>
1.25848

>  <SCORE.INTRA.DIHEDRAL>
4.54497

>  <SCORE.INTRA.DIHEDRAL.0>
11.5206

>  <SCORE.INTRA.POLAR>
0

>  <SCORE.INTRA.POLAR.0>
0

>  <SCORE.INTRA.REPUL>
0

>  <SCORE.INTRA.REPUL.0>
0

>  <SCORE.INTRA.VDW>
-1.01401

>  <SCORE.INTRA.VDW.0>
0.433258

>  <SCORE.INTRA.norm>
0.0547164

>  <SCORE.RESTR>
0.00293227

>  <SCORE.RESTR.CAVITY>
0.00293227

>  <SCORE.RESTR.norm>
0.00012749

>  <SCORE.SYSTEM>
0

>  <SCORE.SYSTEM.CONST>
0

>  <SCORE.SYSTEM.DIHEDRAL>
0

>  <SCORE.SYSTEM.norm>
0

>  <SCORE.heavy>
23

>  <SCORE.norm>
-0.860042

$$$$
design_7
 OpenBabel05252019093D

 24 26  0  0  0  0  0  0  0  0999 V2000
   40.1278  -46.0617   10.7916 N   0  0  0  0  0  0  0  0  0  0  0  0
   39.8825  -45.8790    9.0738 S   0  0  0  0  0  0  0  0  0  0  0  0
   39.2449  -47.1764    8.5999 O   0  0  0  0  0  0  0  0  0  0  0  0
   39.0217  -44.7051    8.7844 O   0  0  0  0  0  0  0  0  0  0  0  0
   41.4211  -45.6668    8.2824 C   0  0  0  0  0  0  0  0  0  0  0  0
   42.3966  -44.8783    8.8337 C   0  0  0  0  0  0  0  0  0  0  0  0
   43.6433  -44.6699    8.2297 C   0  0  0  0  0  0  0  0  0  0  0  0
   43.8969  -45.2764    7.0427 C   0  0  0  0  0  0  0  0  0  0  0  0
   45.1193  -45.1386    6.3002 C   0  0  0  0  0  0  0  0  0  0  0  0
   45.1890  -45.4710    4.9231 N   0  0  0  0  0  0  0  0  0  0  0  0
   44.3152  -45.1568    3.8726 C   0  0  0  0  0  0  0  0  0  0  0  0
   43.2853  -44.4712    4.1374 O   0  0  0  0  0  0  0  0  0  0  0  0
   44.4815  -45.5473    2.4777 C   0  0  0  0  0  0  0  0  0  0  0  0
   43.5211  -45.2508    1.5278 C   0  0  0  0  0  0  0  0  0  0  0  0
   43.6716  -45.5783    0.1865 C   0  0  0  0  0  0  0  0  0  0  0  0
   44.7895  -46.2151   -0.2468 C   0  0  0  0  0  0  0  0  0  0  0  0
   45.7765  -46.5317    0.6715 C   0  0  0  0  0  0  0  0  0  0  0  0
   46.9244  -47.2095    0.3021 C   0  0  0  0  0  0  0  0  0  0  0  0
   47.8736  -47.5394    1.2466 C   0  0  0  0  0  0  0  0  0  0  0  0
   47.6917  -47.1964    2.5774 C   0  0  0  0  0  0  0  0  0  0  0  0
   46.5601  -46.5413    2.8659 N   0  0  0  0  0  0  0  0  0  0  0  0
   45.6080  -46.1972    1.9971 C   0  0  0  0  0  0  0  0  0  0  0  0
   42.8917  -46.0842    6.4840 C   0  0  0  0  0  0  0  0  0  0  0  0
   41.6793  -46.2879    7.0719 C   0  0  0  0  0  0  0  0  0  0  0  0
  1  2  1  0  0  0  0
  2  3  2  0  0  0  0
  2  4  2  0  0  0  0
  2  5  1  0  0  0  0
  5  6  2  0  0  0  0
  6  7  1  0  0  0  0
  7  8  2  0  0  0  0
  8  9  1  0  0  0  0
  8 23  1  0  0  0  0
  9 10  1  0  0  0  0
 10 11  1  0  0  0  0
 11 12  2  0  0  0  0
 11 13  1  0  0  0  0
 13 14  2  0  0  0  0
 14 15  1  0  0  0  0
 15 16  2  0  0  0  0
 16 17  1  0  0  0  0
 17 18  2  0  0  0  0
 18 19  1  0  0  0  0
 19 20  2  0  0  0  0
 20 21  1  0  0  0  0
 21 22  2  0  0  0  0
 22 13  1  0  0  0  0
 22 17  1  0  0  0  0
 23 24  2  0  0  0  0
 24  5  1  0  0  0  0
M  END
>  <CHROM.1>
41.87701901,-40.99228399,-161.79754465,45.52571153,176.27862747,43.39261228
-45.85991576,5.19846116,-2.19411321,0.08050396,-1.59835429

>  <Name>
design_7

>  <RI>
0

>  <Rbt.Current_Directory>
/home/ziqiaoxu/icml18-jtnn/VAEdesign

>  <Rbt.Executable>
rbdock ($Id: //depot/dev/client3/rdock/2013.1/src/exe/rbdock.cxx#4 $)

>  <Rbt.Library>
libRbt.so (2013.1, Build901 2013/11/27)

>  <Rbt.Parameter_File>
/export/apps/rDock/src/rDock_2013.1_src//data/scripts/dock.prm

>  <Rbt.Receptor>
/home/ziqiaoxu/icml18-jtnn/VAEdesign/targets/RdRp-SARS-CoV-2/pocket_docking.prm

>  <SCORE>
-27.7555

>  <SCORE.INTER>
-23.4373

>  <SCORE.INTER.CONST>
1

>  <SCORE.INTER.POLAR>
-2.39494

>  <SCORE.INTER.REPUL>
0

>  <SCORE.INTER.ROT>
5

>  <SCORE.INTER.VDW>
-25.6945

>  <SCORE.INTER.norm>
-0.976555

>  <SCORE.INTRA>
-4.31821

>  <SCORE.INTRA.DIHEDRAL>
-6.54394

>  <SCORE.INTRA.DIHEDRAL.0>
10.0182

>  <SCORE.INTRA.POLAR>
-0.576751

>  <SCORE.INTRA.POLAR.0>
-0.00625795

>  <SCORE.INTRA.REPUL>
0

>  <SCORE.INTRA.REPUL.0>
0

>  <SCORE.INTRA.VDW>
0.914713

>  <SCORE.INTRA.VDW.0>
-2.51394

>  <SCORE.INTRA.norm>
-0.179925

>  <SCORE.RESTR>
0

>  <SCORE.RESTR.CAVITY>
0

>  <SCORE.RESTR.norm>
0

>  <SCORE.SYSTEM>
0

>  <SCORE.SYSTEM.CONST>
0

>  <SCORE.SYSTEM.DIHEDRAL>
0

>  <SCORE.SYSTEM.norm>
0

>  <SCORE.heavy>
24

>  <SCORE.norm>
-1.15648

$$$$
design_10
 OpenBabel05252019093D

 29 31  0  0  0  0  0  0  0  0999 V2000
   39.7985  -36.8134    2.5503 C   0  0  0  0  0  0  0  0  0  0  0  0
   40.9731  -37.4919    1.9074 C   0  0  0  0  0  0  0  0  0  0  0  0
   41.9033  -36.7487    1.5785 O   0  0  0  0  0  0  0  0  0  0  0  0
   40.9216  -38.8674    1.7371 N   0  0  0  0  0  0  0  0  0  0  0  0
   41.9445  -39.6346    1.1429 C   0  0  0  0  0  0  0  0  0  0  0  0
   43.0283  -39.0631    0.5353 C   0  0  0  0  0  0  0  0  0  0  0  0
   43.9890  -39.9344   -0.0016 C   0  0  0  0  0  0  0  0  0  0  0  0
   43.8642  -41.2937    0.0689 C   0  0  0  0  0  0  0  0  0  0  0  0
   42.7856  -41.8530    0.6730 C   0  0  0  0  0  0  0  0  0  0  0  0
   42.5913  -43.3448    0.7776 C   0  0  0  0  0  0  0  0  0  0  0  0
   41.4230  -43.6469    1.5552 N   0  0  0  0  0  0  0  0  0  0  0  0
   41.4420  -44.2407    2.8367 C   0  0  0  0  0  0  0  0  0  0  0  0
   42.5433  -44.5259    3.3308 O   0  0  0  0  0  0  0  0  0  0  0  0
   40.2426  -44.5167    3.5676 N   0  0  0  0  0  0  0  0  0  0  0  0
   40.3663  -45.1205    4.8628 C   0  0  0  0  0  0  0  0  0  0  0  0
   39.0681  -45.1610    5.6101 C   0  0  0  0  0  0  0  0  0  0  0  0
   39.2628  -45.6540    7.0079 C   0  0  0  0  0  0  0  0  0  0  0  0
   39.1694  -44.7685    8.0795 C   0  0  0  0  0  0  0  0  0  0  0  0
   39.3067  -45.2225    9.3800 C   0  0  0  0  0  0  0  0  0  0  0  0
   39.5364  -46.5640    9.6102 C   0  0  0  0  0  0  0  0  0  0  0  0
   39.6252  -47.4280    8.5415 C   0  0  0  0  0  0  0  0  0  0  0  0
   39.4901  -46.9900    7.2153 C   0  0  0  0  0  0  0  0  0  0  0  0
   39.5979  -47.9186    6.2192 F   0  0  0  0  0  0  0  0  0  0  0  0
   38.0632  -46.0181    4.9079 C   0  0  0  0  0  0  0  0  0  0  0  0
   36.6515  -45.8082    5.3044 C   0  0  0  0  0  0  0  0  0  0  0  0
   36.3238  -44.4539    5.2096 O   0  0  0  0  0  0  0  0  0  0  0  0
   37.1046  -43.7301    6.1480 C   0  0  0  0  0  0  0  0  0  0  0  0
   38.5107  -43.7461    5.5658 C   0  0  0  0  0  0  0  0  0  0  0  0
   41.8257  -41.0347    1.2101 C   0  0  0  0  0  0  0  0  0  0  0  0
  1  2  1  0  0  0  0
  2  3  2  0  0  0  0
  2  4  1  0  0  0  0
  4  5  1  0  0  0  0
  5  6  2  0  0  0  0
  6  7  1  0  0  0  0
  7  8  2  0  0  0  0
  8  9  1  0  0  0  0
  9 10  1  0  0  0  0
  9 29  2  0  0  0  0
 10 11  1  0  0  0  0
 11 12  1  0  0  0  0
 12 13  2  0  0  0  0
 12 14  1  0  0  0  0
 14 15  1  0  0  0  0
 15 16  1  0  0  0  0
 16 17  1  0  0  0  0
 16 24  1  0  0  0  0
 17 18  2  0  0  0  0
 18 19  1  0  0  0  0
 19 20  2  0  0  0  0
 20 21  1  0  0  0  0
 21 22  2  0  0  0  0
 22 23  1  0  0  0  0
 22 17  1  0  0  0  0
 24 25  1  0  0  0  0
 25 26  1  0  0  0  0
 26 27  1  0  0  0  0
 27 28  1  0  0  0  0
 28 16  1  0  0  0  0
 29  5  1  0  0  0  0
M  END
>  <CHROM.1>
-7.75084356,175.44361715,-111.12698894,171.01139026,-173.64178377,107.52939919
40.34541703,-43.18257064,4.03470263,1.05756727,0.78566435,-0.34595464

>  <Name>
design_10

>  <RI>
0

>  <Rbt.Current_Directory>
/home/ziqiaoxu/icml18-jtnn/VAEdesign

>  <Rbt.Executable>
rbdock ($Id: //depot/dev/client3/rdock/2013.1/src/exe/rbdock.cxx#4 $)

>  <Rbt.Library>
libRbt.so (2013.1, Build901 2013/11/27)

>  <Rbt.Parameter_File>
/export/apps/rDock/src/rDock_2013.1_src//data/scripts/dock.prm

>  <Rbt.Receptor>
/home/ziqiaoxu/icml18-jtnn/VAEdesign/targets/RdRp-SARS-CoV-2/pocket_docking.prm

>  <SCORE>
-19.8826

>  <SCORE.INTER>
-19.8471

>  <SCORE.INTER.CONST>
1

>  <SCORE.INTER.POLAR>
-1.63345

>  <SCORE.INTER.REPUL>
0

>  <SCORE.INTER.ROT>
6

>  <SCORE.INTER.VDW>
-25.6934

>  <SCORE.INTER.norm>
-0.684383

>  <SCORE.INTRA>
-0.0354941

>  <SCORE.INTRA.DIHEDRAL>
-1.23676

>  <SCORE.INTRA.DIHEDRAL.0>
5.4798

>  <SCORE.INTRA.POLAR>
0

>  <SCORE.INTRA.POLAR.0>
0

>  <SCORE.INTRA.REPUL>
0

>  <SCORE.INTRA.REPUL.0>
0

>  <SCORE.INTRA.VDW>
0.582886

>  <SCORE.INTRA.VDW.0>
1.95336

>  <SCORE.INTRA.norm>
-0.00122394

>  <SCORE.RESTR>
0

>  <SCORE.RESTR.CAVITY>
0

>  <SCORE.RESTR.norm>
0

>  <SCORE.SYSTEM>
0

>  <SCORE.SYSTEM.CONST>
0

>  <SCORE.SYSTEM.DIHEDRAL>
0

>  <SCORE.SYSTEM.norm>
0

>  <SCORE.heavy>
29

>  <SCORE.norm>
-0.685607

$$$$
design_6
 OpenBabel05252019093D

 25 27  0  0  0  0  0  0  0  0999 V2000
   44.2500  -44.1658   10.5091 C   0  0  0  0  0  0  0  0  0  0  0  0
   43.5234  -43.7427    9.2528 C   0  0  0  0  0  0  0  0  0  0  0  0
   42.6097  -44.7554    8.7799 N   0  0  0  0  0  0  0  0  0  0  0  0
   42.9487  -45.6429    7.7961 C   0  0  0  0  0  0  0  0  0  0  0  0
   44.5675  -45.4932    7.1013 S   0  0  0  0  0  0  0  0  0  0  0  0
   44.6263  -44.1587    5.9095 C   0  0  0  0  0  0  0  0  0  0  0  0
   45.0657  -44.6448    4.5774 C   0  0  0  0  0  0  0  0  0  0  0  0
   44.6689  -44.0387    3.5268 O   0  0  0  0  0  0  0  0  0  0  0  0
   45.9058  -45.7587    4.4244 N   0  0  0  0  0  0  0  0  0  0  0  0
   46.3131  -46.2165    3.1652 C   0  0  0  0  0  0  0  0  0  0  0  0
   45.4138  -46.0754    2.1299 C   0  0  0  0  0  0  0  0  0  0  0  0
   45.7507  -46.4651    0.8639 C   0  0  0  0  0  0  0  0  0  0  0  0
   46.9924  -47.0102    0.5728 C   0  0  0  0  0  0  0  0  0  0  0  0
   47.8794  -47.1466    1.6114 C   0  0  0  0  0  0  0  0  0  0  0  0
   49.2440  -47.7225    1.3774 C   0  0  0  0  0  0  0  0  0  0  0  0
   47.5504  -46.7522    2.9141 C   0  0  0  0  0  0  0  0  0  0  0  0
   42.0850  -46.5540    7.3889 N   0  0  0  0  0  0  0  0  0  0  0  0
   40.8457  -46.7010    7.8707 C   0  0  0  0  0  0  0  0  0  0  0  0
   39.9509  -47.6569    7.4334 C   0  0  0  0  0  0  0  0  0  0  0  0
   38.6813  -47.7664    7.9606 C   0  0  0  0  0  0  0  0  0  0  0  0
   38.2867  -46.8999    8.9543 C   0  0  0  0  0  0  0  0  0  0  0  0
   39.1853  -45.9450    9.3888 C   0  0  0  0  0  0  0  0  0  0  0  0
   40.4631  -45.8228    8.8686 C   0  0  0  0  0  0  0  0  0  0  0  0
   41.3749  -44.8698    9.2895 C   0  0  0  0  0  0  0  0  0  0  0  0
   40.9559  -44.0934   10.2117 O   0  0  0  0  0  0  0  0  0  0  0  0
  1  2  1  0  0  0  0
  2  3  1  0  0  0  0
  3  4  1  0  0  0  0
  4  5  1  0  0  0  0
  4 17  2  0  0  0  0
  5  6  1  0  0  0  0
  6  7  1  0  0  0  0
  7  8  2  0  0  0  0
  7  9  1  0  0  0  0
  9 10  1  0  0  0  0
 10 11  2  0  0  0  0
 11 12  1  0  0  0  0
 12 13  2  0  0  0  0
 13 14  1  0  0  0  0
 14 15  1  0  0  0  0
 14 16  2  0  0  0  0
 16 10  1  0  0  0  0
 17 18  1  0  0  0  0
 18 19  2  0  0  0  0
 19 20  1  0  0  0  0
 20 21  2  0  0  0  0
 21 22  1  0  0  0  0
 22 23  2  0  0  0  0
 23 24  1  0  0  0  0
 23 18  1  0  0  0  0
 24 25  2  0  0  0  0
 24  3  1  0  0  0  0
M  END
>  <CHROM.1>
-96.90703365,-79.05851277,-122.42509350,151.55278849,-33.47997154,43.65353679
-45.78504343,6.15339627,-2.39186095,-0.41905001,-2.09554312

>  <Name>
design_6

>  <RI>
0

>  <Rbt.Current_Directory>
/home/ziqiaoxu/icml18-jtnn/VAEdesign

>  <Rbt.Executable>
rbdock ($Id: //depot/dev/client3/rdock/2013.1/src/exe/rbdock.cxx#4 $)

>  <Rbt.Library>
libRbt.so (2013.1, Build901 2013/11/27)

>  <Rbt.Parameter_File>
/export/apps/rDock/src/rDock_2013.1_src//data/scripts/dock.prm

>  <Rbt.Receptor>
/home/ziqiaoxu/icml18-jtnn/VAEdesign/targets/RdRp-SARS-CoV-2/pocket_docking.prm

>  <SCORE>
-16.0804

>  <SCORE.INTER>
-18.3181

>  <SCORE.INTER.CONST>
1

>  <SCORE.INTER.POLAR>
-0.894427

>  <SCORE.INTER.REPUL>
0.00271624

>  <SCORE.INTER.ROT>
5

>  <SCORE.INTER.VDW>
-25.6906

>  <SCORE.INTER.norm>
-0.732724

>  <SCORE.INTRA>
2.2377

>  <SCORE.INTRA.DIHEDRAL>
1.3755

>  <SCORE.INTRA.DIHEDRAL.0>
11.0277

>  <SCORE.INTRA.POLAR>
0

>  <SCORE.INTRA.POLAR.0>
0

>  <SCORE.INTRA.REPUL>
0

>  <SCORE.INTRA.REPUL.0>
0

>  <SCORE.INTRA.VDW>
1.54995

>  <SCORE.INTRA.VDW.0>
-1.50428

>  <SCORE.INTRA.norm>
0.0895079

>  <SCORE.RESTR>
0

>  <SCORE.RESTR.CAVITY>
0

>  <SCORE.RESTR.norm>
0

>  <SCORE.SYSTEM>
0

>  <SCORE.SYSTEM.CONST>
0

>  <SCORE.SYSTEM.DIHEDRAL>
0

>  <SCORE.SYSTEM.norm>
0

>  <SCORE.heavy>
25

>  <SCORE.norm>
-0.643216

$$$$
design_1
 OpenBabel05252019093D

 25 27  0  0  0  0  0  0  0  0999 V2000
   36.7665  -46.2261    6.1181 C   0  0  0  0  0  0  0  0  0  0  0  0
   38.2066  -46.4075    5.7787 C   0  0  0  0  0  0  0  0  0  0  0  0
   38.7199  -45.7958    4.6368 C   0  0  0  0  0  0  0  0  0  0  0  0
   40.0347  -45.9559    4.3188 C   0  0  0  0  0  0  0  0  0  0  0  0
   40.9013  -46.7145    5.0951 C   0  0  0  0  0  0  0  0  0  0  0  0
   40.3548  -47.3042    6.2179 C   0  0  0  0  0  0  0  0  0  0  0  0
   39.0330  -47.1661    6.5719 C   0  0  0  0  0  0  0  0  0  0  0  0
   38.5699  -47.7938    7.7165 O   0  0  0  0  0  0  0  0  0  0  0  0
   38.0783  -47.0403    8.8025 C   0  0  0  0  0  0  0  0  0  0  0  0
   38.9890  -45.9289    9.1447 C   0  0  0  0  0  0  0  0  0  0  0  0
   38.8022  -44.8113    8.5958 O   0  0  0  0  0  0  0  0  0  0  0  0
   40.0316  -46.1512   10.0680 N   0  0  0  0  0  0  0  0  0  0  0  0
   40.9206  -45.0690   10.4036 C   0  0  0  0  0  0  0  0  0  0  0  0
   42.0644  -44.9902    9.4636 C   0  0  0  0  0  0  0  0  0  0  0  0
   42.0819  -45.5819    8.2233 C   0  0  0  0  0  0  0  0  0  0  0  0
   43.1570  -45.4910    7.3799 C   0  0  0  0  0  0  0  0  0  0  0  0
   44.2990  -44.7755    7.7643 C   0  0  0  0  0  0  0  0  0  0  0  0
   45.4187  -44.7007    6.8354 C   0  0  0  0  0  0  0  0  0  0  0  0
   46.4503  -44.0617    7.1582 O   0  0  0  0  0  0  0  0  0  0  0  0
   45.3566  -45.3353    5.5823 N   0  0  0  0  0  0  0  0  0  0  0  0
   46.5162  -45.2236    4.6929 C   0  0  0  0  0  0  0  0  0  0  0  0
   46.6739  -46.4244    3.7775 C   0  0  0  0  0  0  0  0  0  0  0  0
   46.2138  -45.0898    3.2400 C   0  0  0  0  0  0  0  0  0  0  0  0
   44.2743  -44.1853    9.0088 C   0  0  0  0  0  0  0  0  0  0  0  0
   43.1799  -44.2875    9.8470 C   0  0  0  0  0  0  0  0  0  0  0  0
  1  2  1  0  0  0  0
  2  3  2  0  0  0  0
  3  4  1  0  0  0  0
  4  5  2  0  0  0  0
  5  6  1  0  0  0  0
  6  7  2  0  0  0  0
  7  8  1  0  0  0  0
  7  2  1  0  0  0  0
  8  9  1  0  0  0  0
  9 10  1  0  0  0  0
 10 11  2  0  0  0  0
 10 12  1  0  0  0  0
 12 13  1  0  0  0  0
 13 14  1  0  0  0  0
 14 15  2  0  0  0  0
 15 16  1  0  0  0  0
 16 17  2  0  0  0  0
 17 18  1  0  0  0  0
 17 24  1  0  0  0  0
 18 19  2  0  0  0  0
 18 20  1  0  0  0  0
 20 21  1  0  0  0  0
 21 22  1  0  0  0  0
 22 23  1  0  0  0  0
 23 21  1  0  0  0  0
 24 25  2  0  0  0  0
 25 14  1  0  0  0  0
M  END
>  <CHROM.1>
-63.27004223,-47.33187893,91.15553822,-87.60213185,18.25683695,179.80703087
150.42621139,41.79039166,-45.70777741,7.06627024,2.93791964,0.23457197,1.34166325

>  <Name>
design_1

>  <RI>
0

>  <Rbt.Current_Directory>
/home/ziqiaoxu/icml18-jtnn/VAEdesign

>  <Rbt.Executable>
rbdock ($Id: //depot/dev/client3/rdock/2013.1/src/exe/rbdock.cxx#4 $)

>  <Rbt.Library>
libRbt.so (2013.1, Build901 2013/11/27)

>  <Rbt.Parameter_File>
/export/apps/rDock/src/rDock_2013.1_src//data/scripts/dock.prm

>  <Rbt.Receptor>
/home/ziqiaoxu/icml18-jtnn/VAEdesign/targets/RdRp-SARS-CoV-2/pocket_docking.prm

>  <SCORE>
-18.142

>  <SCORE.INTER>
-17.7169

>  <SCORE.INTER.CONST>
1

>  <SCORE.INTER.POLAR>
-1.30248

>  <SCORE.INTER.REPUL>
0

>  <SCORE.INTER.ROT>
7

>  <SCORE.INTER.VDW>
-25.6884

>  <SCORE.INTER.norm>
-0.708675

>  <SCORE.INTRA>
-0.425076

>  <SCORE.INTRA.DIHEDRAL>
4.21745

>  <SCORE.INTRA.DIHEDRAL.0>
4.83022

>  <SCORE.INTRA.POLAR>
0.00770059

>  <SCORE.INTRA.POLAR.0>
-0.00770059

>  <SCORE.INTRA.REPUL>
0

>  <SCORE.INTRA.REPUL.0>
0

>  <SCORE.INTRA.VDW>
-2.55998

>  <SCORE.INTRA.VDW.0>
0.128219

>  <SCORE.INTRA.norm>
-0.017003

>  <SCORE.RESTR>
0

>  <SCORE.RESTR.CAVITY>
0

>  <SCORE.RESTR.norm>
0

>  <SCORE.SYSTEM>
0

>  <SCORE.SYSTEM.CONST>
0

>  <SCORE.SYSTEM.DIHEDRAL>
0

>  <SCORE.SYSTEM.norm>
0

>  <SCORE.heavy>
25

>  <SCORE.norm>
-0.725678

$$$$
design_12
 OpenBabel05252019093D

 24 26  0  0  0  0  0  0  0  0999 V2000
   44.0340  -45.8948    0.3479 C   0  0  0  0  0  0  0  0  0  0  0  0
   44.3387  -45.8042    1.7255 O   0  0  0  0  0  0  0  0  0  0  0  0
   45.5523  -46.3082    2.1556 C   0  0  0  0  0  0  0  0  0  0  0  0
   46.4014  -46.9409    1.3341 N   0  0  0  0  0  0  0  0  0  0  0  0
   47.5749  -47.4240    1.7679 C   0  0  0  0  0  0  0  0  0  0  0  0
   47.9575  -47.2911    3.0717 C   0  0  0  0  0  0  0  0  0  0  0  0
   47.1065  -46.6412    3.9575 C   0  0  0  0  0  0  0  0  0  0  0  0
   45.9013  -46.1484    3.5024 C   0  0  0  0  0  0  0  0  0  0  0  0
   44.9279  -45.4204    4.3352 C   0  0  0  0  0  0  0  0  0  0  0  0
   45.1577  -45.4569    5.7355 N   0  0  0  0  0  0  0  0  0  0  0  0
   44.5805  -44.4682    6.5952 C   0  0  0  0  0  0  0  0  0  0  0  0
   43.8791  -43.5571    6.0990 O   0  0  0  0  0  0  0  0  0  0  0  0
   44.8091  -44.5349    7.9776 N   0  0  0  0  0  0  0  0  0  0  0  0
   44.2658  -43.5589    8.8795 C   0  0  0  0  0  0  0  0  0  0  0  0
   43.6315  -44.2116   10.0482 C   0  0  0  0  0  0  0  0  0  0  0  0
   42.3728  -44.9276    9.5942 C   0  0  0  0  0  0  0  0  0  0  0  0
   42.1943  -45.6819    8.5412 N   0  0  0  0  0  0  0  0  0  0  0  0
   41.0131  -46.2174    8.3183 C   0  0  0  0  0  0  0  0  0  0  0  0
   40.0293  -45.9432    9.2232 C   0  0  0  0  0  0  0  0  0  0  0  0
   40.8467  -44.9359   10.3413 S   0  0  0  0  0  0  0  0  0  0  0  0
   38.6156  -46.4600    9.1446 C   0  0  0  0  0  0  0  0  0  0  0  0
   38.3300  -46.6744    7.6804 C   0  0  0  0  0  0  0  0  0  0  0  0
   39.3777  -47.6488    7.1971 C   0  0  0  0  0  0  0  0  0  0  0  0
   40.7343  -47.1085    7.1084 C   0  0  0  0  0  0  0  0  0  0  0  0
  1  2  1  0  0  0  0
  2  3  1  0  0  0  0
  3  4  2  0  0  0  0
  4  5  1  0  0  0  0
  5  6  2  0  0  0  0
  6  7  1  0  0  0  0
  7  8  2  0  0  0  0
  8  9  1  0  0  0  0
  8  3  1  0  0  0  0
  9 10  1  0  0  0  0
 10 11  1  0  0  0  0
 11 12  2  0  0  0  0
 11 13  1  0  0  0  0
 13 14  1  0  0  0  0
 14 15  1  0  0  0  0
 15 16  1  0  0  0  0
 16 17  2  0  0  0  0
 17 18  1  0  0  0  0
 18 19  2  0  0  0  0
 19 20  1  0  0  0  0
 19 21  1  0  0  0  0
 20 16  1  0  0  0  0
 21 22  1  0  0  0  0
 22 23  1  0  0  0  0
 23 24  1  0  0  0  0
 24 18  1  0  0  0  0
M  END
>  <CHROM.1>
-3.98168887,169.36850901,159.33012731,132.87796226,-69.29821712,44.26999773
43.34098410,-45.73781749,6.22777148,0.86265011,-0.30850108,-1.93977120

>  <Name>
design_12

>  <RI>
0

>  <Rbt.Current_Directory>
/home/ziqiaoxu/icml18-jtnn/VAEdesign

>  <Rbt.Executable>
rbdock ($Id: //depot/dev/client3/rdock/2013.1/src/exe/rbdock.cxx#4 $)

>  <Rbt.Library>
libRbt.so (2013.1, Build901 2013/11/27)

>  <Rbt.Parameter_File>
/export/apps/rDock/src/rDock_2013.1_src//data/scripts/dock.prm

>  <Rbt.Receptor>
/home/ziqiaoxu/icml18-jtnn/VAEdesign/targets/RdRp-SARS-CoV-2/pocket_docking.prm

>  <SCORE>
-20.6379

>  <SCORE.INTER>
-20.3703

>  <SCORE.INTER.CONST>
1

>  <SCORE.INTER.POLAR>
-1.78885

>  <SCORE.INTER.REPUL>
0

>  <SCORE.INTER.ROT>
6

>  <SCORE.INTER.VDW>
-25.6882

>  <SCORE.INTER.norm>
-0.848761

>  <SCORE.INTRA>
-0.267656

>  <SCORE.INTRA.DIHEDRAL>
0.350645

>  <SCORE.INTRA.DIHEDRAL.0>
4.47661

>  <SCORE.INTRA.POLAR>
0

>  <SCORE.INTRA.POLAR.0>
0

>  <SCORE.INTRA.REPUL>
0

>  <SCORE.INTRA.REPUL.0>
0

>  <SCORE.INTRA.VDW>
-0.442979

>  <SCORE.INTRA.VDW.0>
-0.344937

>  <SCORE.INTRA.norm>
-0.0111523

>  <SCORE.RESTR>
0

>  <SCORE.RESTR.CAVITY>
0

>  <SCORE.RESTR.norm>
0

>  <SCORE.SYSTEM>
0

>  <SCORE.SYSTEM.CONST>
0

>  <SCORE.SYSTEM.DIHEDRAL>
0

>  <SCORE.SYSTEM.norm>
0

>  <SCORE.heavy>
24

>  <SCORE.norm>
-0.859913

$$$$
design_5
 OpenBabel05252019093D

 22 24  0  0  0  0  0  0  0  0999 V2000
   38.9758  -41.9561   11.2230 C   0  0  0  0  0  0  0  0  0  0  0  0
   39.5200  -42.1138    9.8925 N   0  0  0  0  0  0  0  0  0  0  0  0
   39.2831  -41.1165    8.8855 C   0  0  0  0  0  0  0  0  0  0  0  0
   40.5249  -40.4077    8.4220 C   0  0  0  0  0  0  0  0  0  0  0  0
   40.2736  -39.5383    7.2515 C   0  0  0  0  0  0  0  0  0  0  0  0
   40.3376  -38.1741    7.3805 C   0  0  0  0  0  0  0  0  0  0  0  0
   40.0990  -37.3896    6.2744 C   0  0  0  0  0  0  0  0  0  0  0  0
   39.7984  -37.8852    5.0382 C   0  0  0  0  0  0  0  0  0  0  0  0
   39.7353  -39.2746    4.9157 C   0  0  0  0  0  0  0  0  0  0  0  0
   39.9721  -40.0739    6.0166 C   0  0  0  0  0  0  0  0  0  0  0  0
   40.2970  -43.2498    9.6004 C   0  0  0  0  0  0  0  0  0  0  0  0
   40.7691  -43.3908    8.4515 O   0  0  0  0  0  0  0  0  0  0  0  0
   40.5623  -44.2714   10.6201 C   0  0  0  0  0  0  0  0  0  0  0  0
   40.1143  -45.8981   10.0287 S   0  0  0  0  0  0  0  0  0  0  0  0
   40.8319  -46.3313    8.4854 C   0  0  0  0  0  0  0  0  0  0  0  0
   42.0496  -46.0033    8.0561 N   0  0  0  0  0  0  0  0  0  0  0  0
   42.2532  -46.4999    6.8471 N   0  0  0  0  0  0  0  0  0  0  0  0
   41.1591  -47.1424    6.5156 N   0  0  0  0  0  0  0  0  0  0  0  0
   40.2612  -47.0511    7.5191 N   0  0  0  0  0  0  0  0  0  0  0  0
   38.9761  -47.6420    7.4668 C   0  0  0  0  0  0  0  0  0  0  0  0
   38.2096  -47.9107    6.2608 C   0  0  0  0  0  0  0  0  0  0  0  0
   38.9599  -49.0698    6.9316 C   0  0  0  0  0  0  0  0  0  0  0  0
  1  2  1  0  0  0  0
  2  3  1  0  0  0  0
  2 11  1  0  0  0  0
  3  4  1  0  0  0  0
  4  5  1  0  0  0  0
  5  6  2  0  0  0  0
  6  7  1  0  0  0  0
  7  8  2  0  0  0  0
  8  9  1  0  0  0  0
  9 10  2  0  0  0  0
 10  5  1  0  0  0  0
 11 12  2  0  0  0  0
 11 13  1  0  0  0  0
 13 14  1  0  0  0  0
 14 15  1  0  0  0  0
 15 16  2  0  0  0  0
 16 17  1  0  0  0  0
 17 18  2  0  0  0  0
 18 19  1  0  0  0  0
 19 20  1  0  0  0  0
 19 15  1  0  0  0  0
 20 21  1  0  0  0  0
 21 22  1  0  0  0  0
 22 20  1  0  0  0  0
M  END
>  <CHROM.1>
115.31967360,171.47184511,111.06217280,126.89154332,52.91241019,35.90977622
152.34331100,40.13317601,-43.50031034,7.98142216,2.20419444,1.54701635,-0.75205563

>  <Name>
design_5

>  <RI>
0

>  <Rbt.Current_Directory>
/home/ziqiaoxu/icml18-jtnn/VAEdesign

>  <Rbt.Executable>
rbdock ($Id: //depot/dev/client3/rdock/2013.1/src/exe/rbdock.cxx#4 $)

>  <Rbt.Library>
libRbt.so (2013.1, Build901 2013/11/27)

>  <Rbt.Parameter_File>
/export/apps/rDock/src/rDock_2013.1_src//data/scripts/dock.prm

>  <Rbt.Receptor>
/home/ziqiaoxu/icml18-jtnn/VAEdesign/targets/RdRp-SARS-CoV-2/pocket_docking.prm

>  <SCORE>
-14.2331

>  <SCORE.INTER>
-13.2873

>  <SCORE.INTER.CONST>
1

>  <SCORE.INTER.POLAR>
0

>  <SCORE.INTER.REPUL>
0

>  <SCORE.INTER.ROT>
7

>  <SCORE.INTER.VDW>
-25.6873

>  <SCORE.INTER.norm>
-0.603969

>  <SCORE.INTRA>
-0.954535

>  <SCORE.INTRA.DIHEDRAL>
-2.35935

>  <SCORE.INTRA.DIHEDRAL.0>
9.74033

>  <SCORE.INTRA.POLAR>
0

>  <SCORE.INTRA.POLAR.0>
0

>  <SCORE.INTRA.REPUL>
0

>  <SCORE.INTRA.REPUL.0>
0

>  <SCORE.INTRA.VDW>
0.225138

>  <SCORE.INTRA.VDW.0>
-2.16191

>  <SCORE.INTRA.norm>
-0.0433879

>  <SCORE.RESTR>
0.0087604

>  <SCORE.RESTR.CAVITY>
0.0087604

>  <SCORE.RESTR.norm>
0.0003982

>  <SCORE.SYSTEM>
0

>  <SCORE.SYSTEM.CONST>
0

>  <SCORE.SYSTEM.DIHEDRAL>
0

>  <SCORE.SYSTEM.norm>
0

>  <SCORE.heavy>
22

>  <SCORE.norm>
-0.646959

$$$$
design_14
 OpenBabel05252019093D

 24 26  0  0  0  0  0  0  0  0999 V2000
   41.2432  -36.0542    3.4803 C   0  0  0  0  0  0  0  0  0  0  0  0
   40.4732  -37.1402    4.1426 C   0  0  0  0  0  0  0  0  0  0  0  0
   39.4514  -37.8312    3.6073 N   0  0  0  0  0  0  0  0  0  0  0  0
   38.9813  -38.7293    4.4552 N   0  0  0  0  0  0  0  0  0  0  0  0
   39.7150  -38.6236    5.5760 C   0  0  0  0  0  0  0  0  0  0  0  0
   39.5254  -39.4428    6.7800 C   0  0  0  0  0  0  0  0  0  0  0  0
   40.3048  -39.2763    7.9043 C   0  0  0  0  0  0  0  0  0  0  0  0
   40.1359  -40.0383    9.0401 C   0  0  0  0  0  0  0  0  0  0  0  0
   39.1660  -41.0155    9.1039 C   0  0  0  0  0  0  0  0  0  0  0  0
   38.9641  -41.8478   10.3267 C   0  0  0  0  0  0  0  0  0  0  0  0
   39.5594  -43.1431   10.2559 N   0  0  0  0  0  0  0  0  0  0  0  0
   40.7379  -43.4747    9.5393 C   0  0  0  0  0  0  0  0  0  0  0  0
   41.3118  -42.5416    8.9074 O   0  0  0  0  0  0  0  0  0  0  0  0
   41.3105  -44.8291    9.4992 C   0  0  0  0  0  0  0  0  0  0  0  0
   40.4265  -45.8460    8.8917 C   0  0  0  0  0  0  0  0  0  0  0  0
   39.1754  -46.1285    9.4223 C   0  0  0  0  0  0  0  0  0  0  0  0
   38.3906  -47.0840    8.8182 C   0  0  0  0  0  0  0  0  0  0  0  0
   38.7809  -47.7911    7.6954 C   0  0  0  0  0  0  0  0  0  0  0  0
   40.0266  -47.4935    7.1867 C   0  0  0  0  0  0  0  0  0  0  0  0
   40.8291  -46.5426    7.7733 C   0  0  0  0  0  0  0  0  0  0  0  0
   42.4039  -46.2112    7.0773 Cl  0  0  0  0  0  0  0  0  0  0  0  0
   38.3822  -41.1854    7.9779 C   0  0  0  0  0  0  0  0  0  0  0  0
   38.5534  -40.4188    6.8379 C   0  0  0  0  0  0  0  0  0  0  0  0
   40.6200  -37.6546    5.3766 N   0  0  0  0  0  0  0  0  0  0  0  0
  1  2  1  0  0  0  0
  2  3  2  0  0  0  0
  3  4  1  0  0  0  0
  4  5  1  0  0  0  0
  5  6  1  0  0  0  0
  5 24  2  0  0  0  0
  6  7  2  0  0  0  0
  7  8  1  0  0  0  0
  8  9  2  0  0  0  0
  9 10  1  0  0  0  0
  9 22  1  0  0  0  0
 10 11  1  0  0  0  0
 11 12  1  0  0  0  0
 12 13  2  0  0  0  0
 12 14  1  0  0  0  0
 14 15  1  0  0  0  0
 15 16  2  0  0  0  0
 16 17  1  0  0  0  0
 17 18  2  0  0  0  0
 18 19  1  0  0  0  0
 19 20  2  0  0  0  0
 20 21  1  0  0  0  0
 20 15  1  0  0  0  0
 22 23  2  0  0  0  0
 23  6  1  0  0  0  0
 24  2  1  0  0  0  0
M  END
>  <CHROM.1>
-179.36818252,-99.78288826,31.10499394,62.05404269,-59.97331870,40.10464826
-42.31706980,7.44659547,-1.66844685,-1.18048822,2.67124237

>  <Name>
design_14

>  <RI>
0

>  <Rbt.Current_Directory>
/home/ziqiaoxu/icml18-jtnn/VAEdesign

>  <Rbt.Executable>
rbdock ($Id: //depot/dev/client3/rdock/2013.1/src/exe/rbdock.cxx#4 $)

>  <Rbt.Library>
libRbt.so (2013.1, Build901 2013/11/27)

>  <Rbt.Parameter_File>
/export/apps/rDock/src/rDock_2013.1_src//data/scripts/dock.prm

>  <Rbt.Receptor>
/home/ziqiaoxu/icml18-jtnn/VAEdesign/targets/RdRp-SARS-CoV-2/pocket_docking.prm

>  <SCORE>
-19.5484

>  <SCORE.INTER>
-21.2196

>  <SCORE.INTER.CONST>
1

>  <SCORE.INTER.POLAR>
-2.13696

>  <SCORE.INTER.REPUL>
0.265925

>  <SCORE.INTER.ROT>
5

>  <SCORE.INTER.VDW>
-25.6836

>  <SCORE.INTER.norm>
-0.884151

>  <SCORE.INTRA>
1.67121

>  <SCORE.INTRA.DIHEDRAL>
0.00190934

>  <SCORE.INTRA.DIHEDRAL.0>
3.97275

>  <SCORE.INTRA.POLAR>
0

>  <SCORE.INTRA.POLAR.0>
0

>  <SCORE.INTRA.REPUL>
0

>  <SCORE.INTRA.REPUL.0>
0

>  <SCORE.INTRA.VDW>
1.67026

>  <SCORE.INTRA.VDW.0>
-3.40238

>  <SCORE.INTRA.norm>
0.0696339

>  <SCORE.RESTR>
0

>  <SCORE.RESTR.CAVITY>
0

>  <SCORE.RESTR.norm>
0

>  <SCORE.SYSTEM>
0

>  <SCORE.SYSTEM.CONST>
0

>  <SCORE.SYSTEM.DIHEDRAL>
0

>  <SCORE.SYSTEM.norm>
0

>  <SCORE.heavy>
24

>  <SCORE.norm>
-0.814517

$$$$
design_6
 OpenBabel05252019093D

 27 29  0  0  0  0  0  0  0  0999 V2000
   43.4019  -42.7681    4.3658 C   0  0  0  0  0  0  0  0  0  0  0  0
   42.6388  -44.0385    4.4673 C   0  0  0  0  0  0  0  0  0  0  0  0
   42.5666  -44.9485    3.4790 N   0  0  0  0  0  0  0  0  0  0  0  0
   41.8241  -45.9229    3.9169 N   0  0  0  0  0  0  0  0  0  0  0  0
   41.4142  -45.6686    5.1618 C   0  0  0  0  0  0  0  0  0  0  0  0
   40.5690  -46.5712    5.9332 C   0  0  0  0  0  0  0  0  0  0  0  0
   40.2432  -47.8319    5.4934 C   0  0  0  0  0  0  0  0  0  0  0  0
   39.4620  -48.7022    6.2180 C   0  0  0  0  0  0  0  0  0  0  0  0
   38.9610  -48.3322    7.4477 C   0  0  0  0  0  0  0  0  0  0  0  0
   39.2831  -47.0580    7.9042 C   0  0  0  0  0  0  0  0  0  0  0  0
   38.7658  -46.6227    9.2320 C   0  0  0  0  0  0  0  0  0  0  0  0
   39.8722  -46.1770   10.0379 N   0  0  0  0  0  0  0  0  0  0  0  0
   40.1564  -44.8024   10.2403 C   0  0  0  0  0  0  0  0  0  0  0  0
   39.4255  -43.8961    9.7270 O   0  0  0  0  0  0  0  0  0  0  0  0
   41.3217  -44.3681   11.0670 C   0  0  0  0  0  0  0  0  0  0  0  0
   42.5645  -44.3623   10.2249 C   0  0  0  0  0  0  0  0  0  0  0  0
   42.3781  -44.4265    8.8475 C   0  0  0  0  0  0  0  0  0  0  0  0
   43.4973  -44.4275    8.0501 C   0  0  0  0  0  0  0  0  0  0  0  0
   44.7524  -44.3647    8.6514 C   0  0  0  0  0  0  0  0  0  0  0  0
   44.9276  -44.3015   10.0190 C   0  0  0  0  0  0  0  0  0  0  0  0
   46.2190  -44.2401   10.5531 O   0  0  0  0  0  0  0  0  0  0  0  0
   46.6177  -45.2991   11.4118 C   0  0  0  0  0  0  0  0  0  0  0  0
   45.8315  -45.3544   12.6369 C   0  0  0  0  0  0  0  0  0  0  0  0
   45.2022  -45.3919   13.6265 N   0  0  0  0  0  0  0  0  0  0  0  0
   43.7978  -44.3007   10.8149 C   0  0  0  0  0  0  0  0  0  0  0  0
   40.0653  -46.1866    7.1796 C   0  0  0  0  0  0  0  0  0  0  0  0
   41.9197  -44.4744    5.5342 N   0  0  0  0  0  0  0  0  0  0  0  0
  1  2  1  0  0  0  0
  2  3  2  0  0  0  0
  3  4  1  0  0  0  0
  4  5  1  0  0  0  0
  5  6  1  0  0  0  0
  5 27  2  0  0  0  0
  6  7  2  0  0  0  0
  7  8  1  0  0  0  0
  8  9  2  0  0  0  0
  9 10  1  0  0  0  0
 10 11  1  0  0  0  0
 10 26  2  0  0  0  0
 11 12  1  0  0  0  0
 12 13  1  0  0  0  0
 13 14  2  0  0  0  0
 13 15  1  0  0  0  0
 15 16  1  0  0  0  0
 16 17  2  0  0  0  0
 17 18  1  0  0  0  0
 18 19  2  0  0  0  0
 19 20  1  0  0  0  0
 20 21  1  0  0  0  0
 20 25  2  0  0  0  0
 21 22  1  0  0  0  0
 22 23  1  0  0  0  0
 23 24  3  0  0  0  0
 25 16  1  0  0  0  0
 26  6  1  0  0  0  0
 27  2  1  0  0  0  0
M  END
>  <CHROM.1>
7.34973310,126.19603350,102.16262747,83.97608872,14.84096545,-118.90691589
-64.37524268,42.15060478,-45.33954669,8.23881876,-2.24640091,0.43422182,1.64586102

>  <Name>
design_6

>  <RI>
0

>  <Rbt.Current_Directory>
/home/ziqiaoxu/icml18-jtnn/VAEdesign

>  <Rbt.Executable>
rbdock ($Id: //depot/dev/client3/rdock/2013.1/src/exe/rbdock.cxx#4 $)

>  <Rbt.Library>
libRbt.so (2013.1, Build901 2013/11/27)

>  <Rbt.Parameter_File>
/export/apps/rDock/src/rDock_2013.1_src//data/scripts/dock.prm

>  <Rbt.Receptor>
/home/ziqiaoxu/icml18-jtnn/VAEdesign/targets/RdRp-SARS-CoV-2/pocket_docking.prm

>  <SCORE>
-20.638

>  <SCORE.INTER>
-20.3791

>  <SCORE.INTER.CONST>
1

>  <SCORE.INTER.POLAR>
-2.08758

>  <SCORE.INTER.REPUL>
0.000341036

>  <SCORE.INTER.ROT>
7

>  <SCORE.INTER.VDW>
-25.6831

>  <SCORE.INTER.norm>
-0.754783

>  <SCORE.INTRA>
-0.258871

>  <SCORE.INTRA.DIHEDRAL>
3.96134

>  <SCORE.INTRA.DIHEDRAL.0>
3.98372

>  <SCORE.INTRA.POLAR>
0

>  <SCORE.INTRA.POLAR.0>
0

>  <SCORE.INTRA.REPUL>
0

>  <SCORE.INTRA.REPUL.0>
0

>  <SCORE.INTRA.VDW>
-2.23954

>  <SCORE.INTRA.VDW.0>
0.684737

>  <SCORE.INTRA.norm>
-0.00958782

>  <SCORE.RESTR>
0

>  <SCORE.RESTR.CAVITY>
0

>  <SCORE.RESTR.norm>
0

>  <SCORE.SYSTEM>
0

>  <SCORE.SYSTEM.CONST>
0

>  <SCORE.SYSTEM.DIHEDRAL>
0

>  <SCORE.SYSTEM.norm>
0

>  <SCORE.heavy>
27

>  <SCORE.norm>
-0.764371

$$$$
design_11
 OpenBabel05252019093D

 23 25  0  0  0  0  0  0  0  0999 V2000
   43.8253  -39.6925    0.4119 C   0  0  0  0  0  0  0  0  0  0  0  0
   43.3578  -41.1025    0.6920 C   0  0  0  0  0  0  0  0  0  0  0  0
   43.9013  -42.2268    0.2646 N   0  0  0  0  0  0  0  0  0  0  0  0
   43.3834  -43.3650    0.5913 C   0  0  0  0  0  0  0  0  0  0  0  0
   43.9670  -44.6571    0.1255 C   0  0  0  0  0  0  0  0  0  0  0  0
   43.3623  -45.8873    0.0609 C   0  0  0  0  0  0  0  0  0  0  0  0
   44.1038  -46.9096   -0.3983 C   0  0  0  0  0  0  0  0  0  0  0  0
   45.3967  -46.6317   -0.7604 C   0  0  0  0  0  0  0  0  0  0  0  0
   45.5318  -44.9615   -0.4491 S   0  0  0  0  0  0  0  0  0  0  0  0
   42.2648  -43.3451    1.3877 C   0  0  0  0  0  0  0  0  0  0  0  0
   41.4631  -44.4825    1.9213 C   0  0  0  0  0  0  0  0  0  0  0  0
   41.6679  -44.6108    3.3826 C   0  0  0  0  0  0  0  0  0  0  0  0
   41.8616  -43.6211    4.1152 O   0  0  0  0  0  0  0  0  0  0  0  0
   41.6441  -45.9031    3.9795 N   0  0  0  0  0  0  0  0  0  0  0  0
   41.8438  -46.0064    5.3951 C   0  0  0  0  0  0  0  0  0  0  0  0
   40.8941  -46.8293    6.1279 C   0  0  0  0  0  0  0  0  0  0  0  0
   40.1224  -47.8316    5.6310 C   0  0  0  0  0  0  0  0  0  0  0  0
   39.2402  -48.5622    6.4241 C   0  0  0  0  0  0  0  0  0  0  0  0
   39.1160  -48.2899    7.7670 C   0  0  0  0  0  0  0  0  0  0  0  0
   39.8910  -47.2775    8.2851 C   0  0  0  0  0  0  0  0  0  0  0  0
   40.7593  -46.5613    7.4941 C   0  0  0  0  0  0  0  0  0  0  0  0
   41.4880  -45.5754    8.0917 F   0  0  0  0  0  0  0  0  0  0  0  0
   42.0356  -41.6660    1.6118 S   0  0  0  0  0  0  0  0  0  0  0  0
  1  2  1  0  0  0  0
  2  3  2  0  0  0  0
  3  4  1  0  0  0  0
  4  5  1  0  0  0  0
  4 10  2  0  0  0  0
  5  6  2  0  0  0  0
  6  7  1  0  0  0  0
  7  8  2  0  0  0  0
  8  9  1  0  0  0  0
  9  5  1  0  0  0  0
 10 11  1  0  0  0  0
 10 23  1  0  0  0  0
 11 12  1  0  0  0  0
 12 13  2  0  0  0  0
 12 14  1  0  0  0  0
 14 15  1  0  0  0  0
 15 16  1  0  0  0  0
 16 17  2  0  0  0  0
 17 18  1  0  0  0  0
 18 19  2  0  0  0  0
 19 20  1  0  0  0  0
 20 21  2  0  0  0  0
 21 22  1  0  0  0  0
 21 16  1  0  0  0  0
 23  2  1  0  0  0  0
M  END
>  <CHROM.1>
-160.15955761,109.26991629,33.44752834,131.62637594,22.83464269,42.38333882
-44.83363639,2.93844954,0.60545422,1.02628398,-0.18213977

>  <Name>
design_11

>  <RI>
0

>  <Rbt.Current_Directory>
/home/ziqiaoxu/icml18-jtnn/VAEdesign

>  <Rbt.Executable>
rbdock ($Id: //depot/dev/client3/rdock/2013.1/src/exe/rbdock.cxx#4 $)

>  <Rbt.Library>
libRbt.so (2013.1, Build901 2013/11/27)

>  <Rbt.Parameter_File>
/export/apps/rDock/src/rDock_2013.1_src//data/scripts/dock.prm

>  <Rbt.Receptor>
/home/ziqiaoxu/icml18-jtnn/VAEdesign/targets/RdRp-SARS-CoV-2/pocket_docking.prm

>  <SCORE>
-23.7863

>  <SCORE.INTER>
-18.9867

>  <SCORE.INTER.CONST>
1

>  <SCORE.INTER.POLAR>
-1.08972

>  <SCORE.INTER.REPUL>
0

>  <SCORE.INTER.ROT>
5

>  <SCORE.INTER.VDW>
-25.6816

>  <SCORE.INTER.norm>
-0.825509

>  <SCORE.INTRA>
-4.79959

>  <SCORE.INTRA.DIHEDRAL>
-1.16625

>  <SCORE.INTRA.DIHEDRAL.0>
5.94391

>  <SCORE.INTRA.POLAR>
0

>  <SCORE.INTRA.POLAR.0>
0

>  <SCORE.INTRA.REPUL>
0

>  <SCORE.INTRA.REPUL.0>
0

>  <SCORE.INTRA.VDW>
-4.21647

>  <SCORE.INTRA.VDW.0>
2.23929

>  <SCORE.INTRA.norm>
-0.208678

>  <SCORE.RESTR>
0

>  <SCORE.RESTR.CAVITY>
0

>  <SCORE.RESTR.norm>
0

>  <SCORE.SYSTEM>
0

>  <SCORE.SYSTEM.CONST>
0

>  <SCORE.SYSTEM.DIHEDRAL>
0

>  <SCORE.SYSTEM.norm>
0

>  <SCORE.heavy>
23

>  <SCORE.norm>
-1.03419

$$$$
design_7
 OpenBabel05252019093D

 25 27  0  0  0  0  0  0  0  0999 V2000
   38.9210  -49.2864    6.5687 C   0  0  0  0  0  0  0  0  0  0  0  0
   39.5757  -48.1932    7.3493 C   0  0  0  0  0  0  0  0  0  0  0  0
   39.1570  -47.6530    8.5111 N   0  0  0  0  0  0  0  0  0  0  0  0
   40.0054  -46.7020    8.8983 N   0  0  0  0  0  0  0  0  0  0  0  0
   40.9845  -46.6175    7.9877 C   0  0  0  0  0  0  0  0  0  0  0  0
   42.1325  -45.6928    8.0264 C   0  0  0  0  0  0  0  0  0  0  0  0
   42.0921  -44.6233    8.8913 C   0  0  0  0  0  0  0  0  0  0  0  0
   43.1700  -43.7626    8.9214 C   0  0  0  0  0  0  0  0  0  0  0  0
   44.2749  -43.9600    8.1035 C   0  0  0  0  0  0  0  0  0  0  0  0
   44.3446  -45.0203    7.2278 C   0  0  0  0  0  0  0  0  0  0  0  0
   45.4341  -45.2658    6.3697 N   0  0  0  0  0  0  0  0  0  0  0  0
   46.2420  -44.3471    5.7095 C   0  0  0  0  0  0  0  0  0  0  0  0
   46.1111  -43.1151    5.7845 O   0  0  0  0  0  0  0  0  0  0  0  0
   47.3807  -44.8217    4.8200 C   0  0  0  0  0  0  0  0  0  0  0  0
   46.7738  -45.6636    3.7374 C   0  0  0  0  0  0  0  0  0  0  0  0
   45.8358  -45.1091    2.9332 O   0  0  0  0  0  0  0  0  0  0  0  0
   45.2301  -45.5508    1.7967 C   0  0  0  0  0  0  0  0  0  0  0  0
   45.8860  -46.1798    0.7672 C   0  0  0  0  0  0  0  0  0  0  0  0
   45.1925  -46.6046   -0.3749 C   0  0  0  0  0  0  0  0  0  0  0  0
   43.8482  -46.4195   -0.5263 C   0  0  0  0  0  0  0  0  0  0  0  0
   43.1750  -45.7917    0.4918 C   0  0  0  0  0  0  0  0  0  0  0  0
   43.8472  -45.3760    1.6081 C   0  0  0  0  0  0  0  0  0  0  0  0
   43.2050  -44.7455    2.6440 F   0  0  0  0  0  0  0  0  0  0  0  0
   43.2292  -45.8727    7.2271 C   0  0  0  0  0  0  0  0  0  0  0  0
   40.7114  -47.5346    7.0442 N   0  0  0  0  0  0  0  0  0  0  0  0
  1  2  1  0  0  0  0
  2  3  2  0  0  0  0
  3  4  1  0  0  0  0
  4  5  1  0  0  0  0
  5  6  1  0  0  0  0
  5 25  2  0  0  0  0
  6  7  2  0  0  0  0
  7  8  1  0  0  0  0
  8  9  2  0  0  0  0
  9 10  1  0  0  0  0
 10 11  1  0  0  0  0
 10 24  2  0  0  0  0
 11 12  1  0  0  0  0
 12 13  2  0  0  0  0
 12 14  1  0  0  0  0
 14 15  1  0  0  0  0
 15 16  1  0  0  0  0
 16 17  1  0  0  0  0
 17 18  2  0  0  0  0
 18 19  1  0  0  0  0
 19 20  2  0  0  0  0
 20 21  1  0  0  0  0
 21 22  2  0  0  0  0
 22 23  1  0  0  0  0
 22 17  1  0  0  0  0
 24  6  1  0  0  0  0
 25  2  1  0  0  0  0
M  END
>  <CHROM.1>
-14.87567850,-35.42869108,59.95388892,58.36038057,171.26839109,-42.77538980
43.48087030,-45.74083666,5.19861502,2.29095305,0.53555443,1.32911094

>  <Name>
design_7

>  <RI>
0

>  <Rbt.Current_Directory>
/home/ziqiaoxu/icml18-jtnn/VAEdesign

>  <Rbt.Executable>
rbdock ($Id: //depot/dev/client3/rdock/2013.1/src/exe/rbdock.cxx#4 $)

>  <Rbt.Library>
libRbt.so (2013.1, Build901 2013/11/27)

>  <Rbt.Parameter_File>
/export/apps/rDock/src/rDock_2013.1_src//data/scripts/dock.prm

>  <Rbt.Receptor>
/home/ziqiaoxu/icml18-jtnn/VAEdesign/targets/RdRp-SARS-CoV-2/pocket_docking.prm

>  <SCORE>
-17.2415

>  <SCORE.INTER>
-17.0876

>  <SCORE.INTER.CONST>
1

>  <SCORE.INTER.POLAR>
-0.82801

>  <SCORE.INTER.REPUL>
0.00142403

>  <SCORE.INTER.ROT>
6

>  <SCORE.INTER.VDW>
-25.6795

>  <SCORE.INTER.norm>
-0.683505

>  <SCORE.INTRA>
-0.153845

>  <SCORE.INTRA.DIHEDRAL>
7.59565

>  <SCORE.INTRA.DIHEDRAL.0>
1.28776

>  <SCORE.INTRA.POLAR>
0

>  <SCORE.INTRA.POLAR.0>
0

>  <SCORE.INTRA.REPUL>
0

>  <SCORE.INTRA.REPUL.0>
0

>  <SCORE.INTRA.VDW>
-3.95167

>  <SCORE.INTRA.VDW.0>
2.04987

>  <SCORE.INTRA.norm>
-0.00615379

>  <SCORE.RESTR>
0

>  <SCORE.RESTR.CAVITY>
0

>  <SCORE.RESTR.norm>
0

>  <SCORE.SYSTEM>
0

>  <SCORE.SYSTEM.CONST>
0

>  <SCORE.SYSTEM.DIHEDRAL>
0

>  <SCORE.SYSTEM.norm>
0

>  <SCORE.heavy>
25

>  <SCORE.norm>
-0.689659

$$$$
design_11
 OpenBabel05252019093D

 25 27  0  0  0  0  0  0  0  0999 V2000
   42.9553  -44.8533    7.8412 C   0  0  0  0  0  0  0  0  0  0  0  0
   41.7524  -45.6960    7.9865 C   0  0  0  0  0  0  0  0  0  0  0  0
   41.4292  -46.5406    6.9089 C   0  0  0  0  0  0  0  0  0  0  0  0
   40.3432  -47.3533    7.0399 C   0  0  0  0  0  0  0  0  0  0  0  0
   39.5739  -47.3687    8.1736 C   0  0  0  0  0  0  0  0  0  0  0  0
   39.8880  -46.5440    9.2215 C   0  0  0  0  0  0  0  0  0  0  0  0
   40.9957  -45.6993    9.1129 C   0  0  0  0  0  0  0  0  0  0  0  0
   41.2473  -44.8350   10.2676 C   0  0  0  0  0  0  0  0  0  0  0  0
   40.1518  -43.8408   10.4598 C   0  0  0  0  0  0  0  0  0  0  0  0
   40.2573  -42.7865    9.4774 N   0  0  0  0  0  0  0  0  0  0  0  0
   39.8929  -41.4347    9.9202 C   0  0  0  0  0  0  0  0  0  0  0  0
   39.4507  -41.3592   11.1180 O   0  0  0  0  0  0  0  0  0  0  0  0
   40.0901  -40.4508    9.0066 N   0  0  0  0  0  0  0  0  0  0  0  0
   40.2831  -39.4794    8.1091 C   0  0  0  0  0  0  0  0  0  0  0  0
   40.5299  -39.7900    6.6751 C   0  0  0  0  0  0  0  0  0  0  0  0
   40.8341  -41.0221    6.2225 C   0  0  0  0  0  0  0  0  0  0  0  0
   41.0490  -41.2896    4.8769 C   0  0  0  0  0  0  0  0  0  0  0  0
   40.9411  -40.2640    4.0103 N   0  0  0  0  0  0  0  0  0  0  0  0
   40.6362  -39.0088    4.4256 C   0  0  0  0  0  0  0  0  0  0  0  0
   40.5031  -37.9225    3.4882 N   0  0  0  0  0  0  0  0  0  0  0  0
   40.3820  -37.9989    2.1533 C   0  0  0  0  0  0  0  0  0  0  0  0
   40.2826  -36.7148    1.6296 C   0  0  0  0  0  0  0  0  0  0  0  0
   40.3514  -35.8992    2.6930 N   0  0  0  0  0  0  0  0  0  0  0  0
   40.4849  -36.6141    3.8244 C   0  0  0  0  0  0  0  0  0  0  0  0
   40.4308  -38.7490    5.7422 C   0  0  0  0  0  0  0  0  0  0  0  0
  1  2  1  0  0  0  0
  2  3  2  0  0  0  0
  3  4  1  0  0  0  0
  4  5  2  0  0  0  0
  5  6  1  0  0  0  0
  6  7  2  0  0  0  0
  7  8  1  0  0  0  0
  7  2  1  0  0  0  0
  8  9  1  0  0  0  0
  9 10  1  0  0  0  0
 10 11  1  0  0  0  0
 11 12  2  0  0  0  0
 11 13  1  0  0  0  0
 13 14  1  0  0  0  0
 14 15  1  0  0  0  0
 15 16  2  0  0  0  0
 16 17  1  0  0  0  0
 17 18  2  0  0  0  0
 18 19  1  0  0  0  0
 19 20  1  0  0  0  0
 19 25  2  0  0  0  0
 20 21  1  0  0  0  0
 21 22  2  0  0  0  0
 22 23  1  0  0  0  0
 23 24  2  0  0  0  0
 24 20  1  0  0  0  0
 25 15  1  0  0  0  0
M  END
>  <CHROM.1>
113.62190519,-75.38041352,-144.13205550,-164.72433671,-13.35747625,14.43304769
40.58539882,-41.71950017,6.87143167,-1.45909687,1.37559061,-0.72184770

>  <Name>
design_11

>  <RI>
0

>  <Rbt.Current_Directory>
/home/ziqiaoxu/icml18-jtnn/VAEdesign

>  <Rbt.Executable>
rbdock ($Id: //depot/dev/client3/rdock/2013.1/src/exe/rbdock.cxx#4 $)

>  <Rbt.Library>
libRbt.so (2013.1, Build901 2013/11/27)

>  <Rbt.Parameter_File>
/export/apps/rDock/src/rDock_2013.1_src//data/scripts/dock.prm

>  <Rbt.Receptor>
/home/ziqiaoxu/icml18-jtnn/VAEdesign/targets/RdRp-SARS-CoV-2/pocket_docking.prm

>  <SCORE>
-17.2435

>  <SCORE.INTER>
-17.5279

>  <SCORE.INTER.CONST>
1

>  <SCORE.INTER.POLAR>
-0.959166

>  <SCORE.INTER.REPUL>
0.00231048

>  <SCORE.INTER.ROT>
6

>  <SCORE.INTER.VDW>
-25.6783

>  <SCORE.INTER.norm>
-0.701115

>  <SCORE.INTRA>
0.28362

>  <SCORE.INTRA.DIHEDRAL>
1.80902

>  <SCORE.INTRA.DIHEDRAL.0>
2.90469

>  <SCORE.INTRA.POLAR>
0

>  <SCORE.INTRA.POLAR.0>
0

>  <SCORE.INTRA.REPUL>
0

>  <SCORE.INTRA.REPUL.0>
0

>  <SCORE.INTRA.VDW>
-0.620889

>  <SCORE.INTRA.VDW.0>
-0.478951

>  <SCORE.INTRA.norm>
0.0113448

>  <SCORE.RESTR>
0.00078113

>  <SCORE.RESTR.CAVITY>
0.00078113

>  <SCORE.RESTR.norm>
3.12452e-05

>  <SCORE.SYSTEM>
0

>  <SCORE.SYSTEM.CONST>
0

>  <SCORE.SYSTEM.DIHEDRAL>
0

>  <SCORE.SYSTEM.norm>
0

>  <SCORE.heavy>
25

>  <SCORE.norm>
-0.689739

$$$$
design_13
 OpenBabel05252019093D

 25 26  0  0  0  0  0  0  0  0999 V2000
   45.9736  -41.4661   -0.4392 C   0  0  0  0  0  0  0  0  0  0  0  0
   46.2011  -42.8863   -0.6070 N   0  0  0  0  0  0  0  0  0  0  0  0
   45.3555  -43.8815   -0.0837 C   0  0  0  0  0  0  0  0  0  0  0  0
   44.3549  -43.5172    0.5602 O   0  0  0  0  0  0  0  0  0  0  0  0
   45.6383  -45.2923   -0.2864 C   0  0  2  0  0  0  0  0  0  0  0  0
   44.3349  -46.0212   -0.6443 C   0  0  0  0  0  0  0  0  0  0  0  0
   46.2138  -45.9926    0.8624 C   0  0  0  0  0  0  0  0  0  0  0  0
   47.1917  -46.9515    0.6585 C   0  0  0  0  0  0  0  0  0  0  0  0
   47.7631  -47.6359    1.7066 C   0  0  0  0  0  0  0  0  0  0  0  0
   47.3556  -47.3667    3.0158 C   0  0  0  0  0  0  0  0  0  0  0  0
   46.3951  -46.4319    3.2719 C   0  0  0  0  0  0  0  0  0  0  0  0
   45.9245  -46.1287    4.5645 N   0  0  0  0  0  0  0  0  0  0  0  0
   44.8537  -45.2990    4.8902 C   0  0  0  0  0  0  0  0  0  0  0  0
   44.1818  -44.7117    4.0287 O   0  0  0  0  0  0  0  0  0  0  0  0
   44.4631  -45.0781    6.3231 C   0  0  0  0  0  0  0  0  0  0  0  0
   43.2079  -45.6714    6.6731 N   0  0  0  0  0  0  0  0  0  0  0  0
   42.5512  -45.4868    7.9088 C   0  0  0  0  0  0  0  0  0  0  0  0
   43.0993  -44.7579    8.7736 O   0  0  0  0  0  0  0  0  0  0  0  0
   41.2703  -46.0961    8.2379 C   0  0  0  0  0  0  0  0  0  0  0  0
   40.6850  -47.0214    7.3637 C   0  0  0  0  0  0  0  0  0  0  0  0
   39.4790  -47.6124    7.6461 C   0  0  0  0  0  0  0  0  0  0  0  0
   38.7772  -47.3335    8.7967 C   0  0  0  0  0  0  0  0  0  0  0  0
   39.3412  -46.4264    9.6631 C   0  0  0  0  0  0  0  0  0  0  0  0
   40.5706  -45.8156    9.3885 C   0  0  0  0  0  0  0  0  0  0  0  0
   45.8589  -45.7755    2.1609 C   0  0  0  0  0  0  0  0  0  0  0  0
  1  2  1  0  0  0  0
  2  3  1  0  0  0  0
  3  4  2  0  0  0  0
  3  5  1  0  0  0  0
  5  6  1  1  0  0  0
  5  7  1  0  0  0  0
  7  8  2  0  0  0  0
  8  9  1  0  0  0  0
  9 10  2  0  0  0  0
 10 11  1  0  0  0  0
 11 12  1  0  0  0  0
 11 25  2  0  0  0  0
 12 13  1  0  0  0  0
 13 14  2  0  0  0  0
 13 15  1  0  0  0  0
 15 16  1  0  0  0  0
 16 17  1  0  0  0  0
 17 18  2  0  0  0  0
 17 19  1  0  0  0  0
 19 20  2  0  0  0  0
 20 21  1  0  0  0  0
 21 22  2  0  0  0  0
 22 23  1  0  0  0  0
 23 24  2  0  0  0  0
 24 19  1  0  0  0  0
 25  7  1  0  0  0  0
M  END
>  <CHROM.1>
-136.82080853,-141.89205051,-172.51576751,-110.79156645,-172.80636526,6.42196049
44.06618961,-45.56103705,4.12239548,0.84978894,0.60753093,-0.92183324

>  <Name>
design_13

>  <RI>
0

>  <Rbt.Current_Directory>
/home/ziqiaoxu/icml18-jtnn/VAEdesign

>  <Rbt.Executable>
rbdock ($Id: //depot/dev/client3/rdock/2013.1/src/exe/rbdock.cxx#4 $)

>  <Rbt.Library>
libRbt.so (2013.1, Build901 2013/11/27)

>  <Rbt.Parameter_File>
/export/apps/rDock/src/rDock_2013.1_src//data/scripts/dock.prm

>  <Rbt.Receptor>
/home/ziqiaoxu/icml18-jtnn/VAEdesign/targets/RdRp-SARS-CoV-2/pocket_docking.prm

>  <SCORE>
-20.9795

>  <SCORE.INTER>
-21.0346

>  <SCORE.INTER.CONST>
1

>  <SCORE.INTER.POLAR>
-1.98726

>  <SCORE.INTER.REPUL>
0

>  <SCORE.INTER.ROT>
6

>  <SCORE.INTER.VDW>
-25.6779

>  <SCORE.INTER.norm>
-0.841383

>  <SCORE.INTRA>
0.0550515

>  <SCORE.INTRA.DIHEDRAL>
0.357886

>  <SCORE.INTRA.DIHEDRAL.0>
5.38132

>  <SCORE.INTRA.POLAR>
0

>  <SCORE.INTRA.POLAR.0>
0

>  <SCORE.INTRA.REPUL>
0

>  <SCORE.INTRA.REPUL.0>
0

>  <SCORE.INTRA.VDW>
-0.123891

>  <SCORE.INTRA.VDW.0>
0.0307292

>  <SCORE.INTRA.norm>
0.00220206

>  <SCORE.RESTR>
0

>  <SCORE.RESTR.CAVITY>
0

>  <SCORE.RESTR.norm>
0

>  <SCORE.SYSTEM>
0

>  <SCORE.SYSTEM.CONST>
0

>  <SCORE.SYSTEM.DIHEDRAL>
0

>  <SCORE.SYSTEM.norm>
0

>  <SCORE.heavy>
25

>  <SCORE.norm>
-0.839181

$$$$
design_6
 OpenBabel05252019093D

 25 26  0  0  0  0  0  0  0  0999 V2000
   48.0441  -42.9411   11.0071 C   0  0  0  0  0  0  0  0  0  0  0  0
   47.4526  -43.9511   11.9662 C   0  0  0  0  0  0  0  0  0  0  0  0
   46.0456  -44.2464   11.5227 C   0  0  2  0  0  0  0  0  0  0  0  0
   45.5004  -45.3649   12.3869 C   0  0  0  0  0  0  0  0  0  0  0  0
   45.9335  -44.6286   10.1550 N   0  0  0  0  0  0  0  0  0  0  0  0
   44.7850  -44.2895    9.3923 C   0  0  0  0  0  0  0  0  0  0  0  0
   43.9055  -43.6431   10.0067 O   0  0  0  0  0  0  0  0  0  0  0  0
   44.5967  -44.6414    8.0020 C   0  0  0  0  0  0  0  0  0  0  0  0
   45.6306  -44.4069    7.0790 C   0  0  0  0  0  0  0  0  0  0  0  0
   45.5724  -44.7818    5.7579 C   0  0  0  0  0  0  0  0  0  0  0  0
   44.4552  -45.4161    5.3067 C   0  0  0  0  0  0  0  0  0  0  0  0
   43.4117  -45.6694    6.1661 C   0  0  0  0  0  0  0  0  0  0  0  0
   43.4743  -45.2820    7.5247 C   0  0  0  0  0  0  0  0  0  0  0  0
   42.3446  -45.4449    8.3531 N   0  0  0  0  0  0  0  0  0  0  0  0
   41.2162  -46.2146    8.0318 C   0  0  0  0  0  0  0  0  0  0  0  0
   41.0657  -46.8673    6.9778 O   0  0  0  0  0  0  0  0  0  0  0  0
   40.1040  -46.2909    8.9695 N   0  0  0  0  0  0  0  0  0  0  0  0
   40.2047  -45.5642   10.2074 C   0  0  0  0  0  0  0  0  0  0  0  0
   38.9167  -47.0597    8.7073 C   0  0  0  0  0  0  0  0  0  0  0  0
   38.2227  -46.6395    7.4896 C   0  0  0  0  0  0  0  0  0  0  0  0
   37.8038  -45.3420    7.3126 C   0  0  0  0  0  0  0  0  0  0  0  0
   37.1506  -44.9647    6.1567 C   0  0  0  0  0  0  0  0  0  0  0  0
   36.9163  -45.9019    5.1686 C   0  0  0  0  0  0  0  0  0  0  0  0
   37.3220  -47.1990    5.3183 C   0  0  0  0  0  0  0  0  0  0  0  0
   37.9761  -47.5519    6.4892 C   0  0  0  0  0  0  0  0  0  0  0  0
  1  2  1  0  0  0  0
  2  3  1  0  0  0  0
  3  4  1  1  0  0  0
  3  5  1  0  0  0  0
  5  6  1  0  0  0  0
  6  7  2  0  0  0  0
  6  8  1  0  0  0  0
  8  9  2  0  0  0  0
  9 10  1  0  0  0  0
 10 11  2  0  0  0  0
 11 12  1  0  0  0  0
 12 13  2  0  0  0  0
 13 14  1  0  0  0  0
 13  8  1  0  0  0  0
 14 15  1  0  0  0  0
 15 16  2  0  0  0  0
 15 17  1  0  0  0  0
 17 18  1  0  0  0  0
 17 19  1  0  0  0  0
 19 20  1  0  0  0  0
 20 21  2  0  0  0  0
 21 22  1  0  0  0  0
 22 23  2  0  0  0  0
 23 24  1  0  0  0  0
 24 25  2  0  0  0  0
 25 20  1  0  0  0  0
M  END
>  <CHROM.1>
173.97107259,-147.17319297,-47.90969829,-171.95556470,-58.97095280,-56.52743783
42.38515753,-45.35569875,8.30655693,0.42340292,0.24014915,1.51266041

>  <Name>
design_6

>  <RI>
0

>  <Rbt.Current_Directory>
/home/ziqiaoxu/icml18-jtnn/VAEdesign

>  <Rbt.Executable>
rbdock ($Id: //depot/dev/client3/rdock/2013.1/src/exe/rbdock.cxx#4 $)

>  <Rbt.Library>
libRbt.so (2013.1, Build901 2013/11/27)

>  <Rbt.Parameter_File>
/export/apps/rDock/src/rDock_2013.1_src//data/scripts/dock.prm

>  <Rbt.Receptor>
/home/ziqiaoxu/icml18-jtnn/VAEdesign/targets/RdRp-SARS-CoV-2/pocket_docking.prm

>  <SCORE>
-20.2361

>  <SCORE.INTER>
-17.942

>  <SCORE.INTER.CONST>
1

>  <SCORE.INTER.POLAR>
-1.07809

>  <SCORE.INTER.REPUL>
0

>  <SCORE.INTER.ROT>
6

>  <SCORE.INTER.VDW>
-25.6765

>  <SCORE.INTER.norm>
-0.71768

>  <SCORE.INTRA>
-2.30032

>  <SCORE.INTRA.DIHEDRAL>
5.9143

>  <SCORE.INTRA.DIHEDRAL.0>
5.51542

>  <SCORE.INTRA.POLAR>
0.0131625

>  <SCORE.INTRA.POLAR.0>
-0.0131625

>  <SCORE.INTRA.REPUL>
0

>  <SCORE.INTRA.REPUL.0>
0

>  <SCORE.INTRA.VDW>
-5.30222

>  <SCORE.INTRA.VDW.0>
3.23239

>  <SCORE.INTRA.norm>
-0.0920126

>  <SCORE.RESTR>
0.00617193

>  <SCORE.RESTR.CAVITY>
0.00617193

>  <SCORE.RESTR.norm>
0.000246877

>  <SCORE.SYSTEM>
0

>  <SCORE.SYSTEM.CONST>
0

>  <SCORE.SYSTEM.DIHEDRAL>
0

>  <SCORE.SYSTEM.norm>
0

>  <SCORE.heavy>
25

>  <SCORE.norm>
-0.809446

$$$$
design_6
 OpenBabel05252019093D

 22 24  0  0  0  0  0  0  0  0999 V2000
   41.6744  -44.3849   10.2621 C   0  0  0  0  0  0  0  0  0  0  0  0
   40.9981  -45.4242    9.4507 C   0  0  0  0  0  0  0  0  0  0  0  0
   41.5871  -45.9033    8.3043 C   0  0  0  0  0  0  0  0  0  0  0  0
   40.9327  -46.8625    7.5811 C   0  0  0  0  0  0  0  0  0  0  0  0
   39.7045  -47.3719    7.9521 C   0  0  0  0  0  0  0  0  0  0  0  0
   38.8615  -48.6003    7.0302 S   0  0  0  0  0  0  0  0  0  0  0  0
   39.9264  -49.3754    6.2819 O   0  0  0  0  0  0  0  0  0  0  0  0
   38.2180  -49.6142    7.9161 O   0  0  0  0  0  0  0  0  0  0  0  0
   37.8752  -47.8765    5.9122 N   0  0  0  0  0  0  0  0  0  0  0  0
   37.5979  -46.4968    5.9428 C   0  0  2  0  0  0  0  0  0  0  0  0
   36.2463  -46.0682    5.5267 C   0  0  0  0  0  0  0  0  0  0  0  0
   35.9899  -44.6051    5.3430 C   0  0  0  0  0  0  0  0  0  0  0  0
   37.3308  -43.7008    6.1812 S   0  0  0  0  0  0  0  0  0  0  0  0
   38.7637  -44.4015    5.3855 C   0  0  0  0  0  0  0  0  0  0  0  0
   39.7985  -43.6918    4.8522 C   0  0  0  0  0  0  0  0  0  0  0  0
   39.7887  -42.3456    4.9211 F   0  0  0  0  0  0  0  0  0  0  0  0
   40.8632  -44.3760    4.2367 C   0  0  0  0  0  0  0  0  0  0  0  0
   40.8601  -45.7561    4.1733 C   0  0  0  0  0  0  0  0  0  0  0  0
   39.7875  -46.4315    4.7292 C   0  0  0  0  0  0  0  0  0  0  0  0
   38.7387  -45.7818    5.3347 C   0  0  0  0  0  0  0  0  0  0  0  0
   39.1518  -46.8610    9.1100 C   0  0  0  0  0  0  0  0  0  0  0  0
   39.7720  -45.8905    9.8775 C   0  0  0  0  0  0  0  0  0  0  0  0
  1  2  1  0  0  0  0
  2  3  2  0  0  0  0
  3  4  1  0  0  0  0
  4  5  2  0  0  0  0
  5  6  1  0  0  0  0
  5 21  1  0  0  0  0
  6  7  2  0  0  0  0
  6  8  2  0  0  0  0
  6  9  1  0  0  0  0
 10  9  1  6  0  0  0
 10 11  1  0  0  0  0
 11 12  1  0  0  0  0
 12 13  1  0  0  0  0
 13 14  1  0  0  0  0
 14 15  2  0  0  0  0
 15 16  1  0  0  0  0
 15 17  1  0  0  0  0
 17 18  2  0  0  0  0
 18 19  1  0  0  0  0
 19 20  2  0  0  0  0
 20 10  1  0  0  0  0
 20 14  1  0  0  0  0
 21 22  2  0  0  0  0
 22  2  1  0  0  0  0
M  END
>  <CHROM.1>
26.12663597,-11.79956782,-145.08694406,39.14371823,-46.01633711,6.63224299
-1.29066101,-0.80553223,-0.40944405

>  <Name>
design_6

>  <RI>
0

>  <Rbt.Current_Directory>
/home/ziqiaoxu/icml18-jtnn/VAEdesign

>  <Rbt.Executable>
rbdock ($Id: //depot/dev/client3/rdock/2013.1/src/exe/rbdock.cxx#4 $)

>  <Rbt.Library>
libRbt.so (2013.1, Build901 2013/11/27)

>  <Rbt.Parameter_File>
/export/apps/rDock/src/rDock_2013.1_src//data/scripts/dock.prm

>  <Rbt.Receptor>
/home/ziqiaoxu/icml18-jtnn/VAEdesign/targets/RdRp-SARS-CoV-2/pocket_docking.prm

>  <SCORE>
-16.3417

>  <SCORE.INTER>
-16.1736

>  <SCORE.INTER.CONST>
1

>  <SCORE.INTER.POLAR>
0

>  <SCORE.INTER.REPUL>
0.220529

>  <SCORE.INTER.ROT>
3

>  <SCORE.INTER.VDW>
-25.6762

>  <SCORE.INTER.norm>
-0.735163

>  <SCORE.INTRA>
-0.168101

>  <SCORE.INTRA.DIHEDRAL>
1.23212

>  <SCORE.INTRA.DIHEDRAL.0>
3.31399

>  <SCORE.INTRA.POLAR>
0

>  <SCORE.INTRA.POLAR.0>
0

>  <SCORE.INTRA.REPUL>
0

>  <SCORE.INTRA.REPUL.0>
0

>  <SCORE.INTRA.VDW>
-0.784159

>  <SCORE.INTRA.VDW.0>
-3.02437

>  <SCORE.INTRA.norm>
-0.00764095

>  <SCORE.RESTR>
0

>  <SCORE.RESTR.CAVITY>
0

>  <SCORE.RESTR.norm>
0

>  <SCORE.SYSTEM>
0

>  <SCORE.SYSTEM.CONST>
0

>  <SCORE.SYSTEM.DIHEDRAL>
0

>  <SCORE.SYSTEM.norm>
0

>  <SCORE.heavy>
22

>  <SCORE.norm>
-0.742804

$$$$
design_5
 OpenBabel05252019093D

 26 28  0  0  0  0  0  0  0  0999 V2000
   45.8521  -44.0117    9.1076 N   0  0  0  0  0  0  0  0  0  0  0  0
   44.5829  -43.8290    9.7452 C   0  0  0  0  0  0  0  0  0  0  0  0
   44.5953  -43.0622   10.7214 O   0  0  0  0  0  0  0  0  0  0  0  0
   43.4389  -44.5298    9.2129 C   0  0  0  0  0  0  0  0  0  0  0  0
   42.2455  -44.4608    9.9536 C   0  0  0  0  0  0  0  0  0  0  0  0
   41.0764  -45.0515    9.5669 C   0  0  0  0  0  0  0  0  0  0  0  0
   41.0383  -45.7522    8.4031 C   0  0  0  0  0  0  0  0  0  0  0  0
   42.2028  -45.8352    7.6551 C   0  0  0  0  0  0  0  0  0  0  0  0
   43.4102  -45.2486    8.0152 C   0  0  0  0  0  0  0  0  0  0  0  0
   44.5706  -45.3890    7.2392 N   0  0  0  0  0  0  0  0  0  0  0  0
   44.7108  -45.3174    5.8358 C   0  0  0  0  0  0  0  0  0  0  0  0
   43.7491  -45.1133    5.0501 O   0  0  0  0  0  0  0  0  0  0  0  0
   46.0285  -45.4855    5.1687 C   0  0  0  0  0  0  0  0  0  0  0  0
   46.0517  -46.3105    4.0562 O   0  0  0  0  0  0  0  0  0  0  0  0
   47.1146  -46.7429    3.3279 C   0  0  0  0  0  0  0  0  0  0  0  0
   48.2970  -47.0661    3.9337 C   0  0  0  0  0  0  0  0  0  0  0  0
   49.3664  -47.4975    3.1991 C   0  0  0  0  0  0  0  0  0  0  0  0
   49.2229  -47.5983    1.8364 C   0  0  0  0  0  0  0  0  0  0  0  0
   48.0281  -47.2709    1.2326 C   0  0  0  0  0  0  0  0  0  0  0  0
   46.9225  -46.8284    1.9587 C   0  0  0  0  0  0  0  0  0  0  0  0
   45.7236  -46.5082    1.2899 C   0  0  0  0  0  0  0  0  0  0  0  0
   45.6030  -46.6697   -0.0970 C   0  0  0  0  0  0  0  0  0  0  0  0
   44.4377  -46.3624   -0.7629 C   0  0  0  0  0  0  0  0  0  0  0  0
   43.3307  -45.8810   -0.1035 C   0  0  0  0  0  0  0  0  0  0  0  0
   43.4419  -45.7175    1.2755 C   0  0  0  0  0  0  0  0  0  0  0  0
   44.6082  -46.0274    1.9263 C   0  0  0  0  0  0  0  0  0  0  0  0
  1  2  1  0  0  0  0
  2  3  2  0  0  0  0
  2  4  1  0  0  0  0
  4  5  2  0  0  0  0
  5  6  1  0  0  0  0
  6  7  2  0  0  0  0
  7  8  1  0  0  0  0
  8  9  2  0  0  0  0
  9 10  1  0  0  0  0
  9  4  1  0  0  0  0
 10 11  1  0  0  0  0
 11 12  2  0  0  0  0
 11 13  1  0  0  0  0
 13 14  1  0  0  0  0
 14 15  1  0  0  0  0
 15 16  2  0  0  0  0
 16 17  1  0  0  0  0
 17 18  2  0  0  0  0
 18 19  1  0  0  0  0
 19 20  2  0  0  0  0
 20 21  1  0  0  0  0
 20 15  1  0  0  0  0
 21 22  2  0  0  0  0
 22 23  1  0  0  0  0
 23 24  2  0  0  0  0
 24 25  1  0  0  0  0
 25 26  2  0  0  0  0
 26 21  1  0  0  0  0
M  END
>  <CHROM.1>
172.43743473,-138.82606607,134.72492758,-173.36229008,37.61670374,-177.71386491
44.99209394,-45.71547583,5.03090900,-1.93847280,0.14805912,-1.78516278

>  <Name>
design_5

>  <RI>
0

>  <Rbt.Current_Directory>
/home/ziqiaoxu/icml18-jtnn/VAEdesign

>  <Rbt.Executable>
rbdock ($Id: //depot/dev/client3/rdock/2013.1/src/exe/rbdock.cxx#4 $)

>  <Rbt.Library>
libRbt.so (2013.1, Build901 2013/11/27)

>  <Rbt.Parameter_File>
/export/apps/rDock/src/rDock_2013.1_src//data/scripts/dock.prm

>  <Rbt.Receptor>
/home/ziqiaoxu/icml18-jtnn/VAEdesign/targets/RdRp-SARS-CoV-2/pocket_docking.prm

>  <SCORE>
-14.0403

>  <SCORE.INTER>
-20.0666

>  <SCORE.INTER.CONST>
1

>  <SCORE.INTER.POLAR>
-1.70319

>  <SCORE.INTER.REPUL>
0

>  <SCORE.INTER.ROT>
6

>  <SCORE.INTER.VDW>
-25.6758

>  <SCORE.INTER.norm>
-0.771793

>  <SCORE.INTRA>
6.02633

>  <SCORE.INTRA.DIHEDRAL>
5.52081

>  <SCORE.INTRA.DIHEDRAL.0>
4.1335

>  <SCORE.INTRA.POLAR>
0

>  <SCORE.INTRA.POLAR.0>
0

>  <SCORE.INTRA.REPUL>
0

>  <SCORE.INTRA.REPUL.0>
0

>  <SCORE.INTRA.VDW>
3.26592

>  <SCORE.INTRA.VDW.0>
-2.52214

>  <SCORE.INTRA.norm>
0.231782

>  <SCORE.RESTR>
0

>  <SCORE.RESTR.CAVITY>
0

>  <SCORE.RESTR.norm>
0

>  <SCORE.SYSTEM>
0

>  <SCORE.SYSTEM.CONST>
0

>  <SCORE.SYSTEM.DIHEDRAL>
0

>  <SCORE.SYSTEM.norm>
0

>  <SCORE.heavy>
26

>  <SCORE.norm>
-0.540011

$$$$
design_13
 OpenBabel05252019093D

 24 25  0  0  0  0  0  0  0  0999 V2000
   39.9472  -46.3503   10.5010 N   0  0  0  0  0  0  0  0  0  0  0  0
   40.2659  -45.8843    9.2128 C   0  0  0  0  0  0  0  0  0  0  0  0
   40.7213  -44.7270    9.0558 O   0  0  0  0  0  0  0  0  0  0  0  0
   40.0665  -46.7289    8.0533 C   0  0  0  0  0  0  0  0  0  0  0  0
   39.3573  -47.9170    8.1659 C   0  0  0  0  0  0  0  0  0  0  0  0
   39.1630  -48.7023    7.0728 C   0  0  0  0  0  0  0  0  0  0  0  0
   39.6787  -48.3183    5.8315 C   0  0  0  0  0  0  0  0  0  0  0  0
   40.3792  -47.1672    5.6674 C   0  0  0  0  0  0  0  0  0  0  0  0
   40.9106  -46.6350    4.5009 N   0  0  0  0  0  0  0  0  0  0  0  0
   41.9349  -45.6168    4.4308 C   0  0  0  0  0  0  0  0  0  0  0  0
   42.4039  -45.1348    5.4671 O   0  0  0  0  0  0  0  0  0  0  0  0
   42.3714  -45.2113    3.0883 C   0  0  0  0  0  0  0  0  0  0  0  0
   41.5089  -44.3485    2.2750 C   0  0  0  0  0  0  0  0  0  0  0  0
   41.9565  -43.3145    1.5372 N   0  0  0  0  0  0  0  0  0  0  0  0
   42.4191  -42.2459    0.7748 C   0  0  0  0  0  0  0  0  0  0  0  0
   41.8241  -41.1997    0.5105 O   0  0  0  0  0  0  0  0  0  0  0  0
   43.8028  -42.3545    0.1987 C   0  0  0  0  0  0  0  0  0  0  0  0
   44.5649  -43.4795    0.3376 C   0  0  0  0  0  0  0  0  0  0  0  0
   45.8383  -43.5029   -0.2481 C   0  0  0  0  0  0  0  0  0  0  0  0
   46.2591  -42.3919   -0.9349 C   0  0  0  0  0  0  0  0  0  0  0  0
   45.4663  -41.2560   -1.0637 C   0  0  0  0  0  0  0  0  0  0  0  0
   46.0681  -39.8439   -1.9464 Cl  0  0  0  0  0  0  0  0  0  0  0  0
   44.2122  -41.2296   -0.4890 C   0  0  0  0  0  0  0  0  0  0  0  0
   40.5583  -46.3786    6.8252 C   0  0  0  0  0  0  0  0  0  0  0  0
  1  2  1  0  0  0  0
  2  3  2  0  0  0  0
  2  4  1  0  0  0  0
  4  5  2  0  0  0  0
  5  6  1  0  0  0  0
  6  7  2  0  0  0  0
  7  8  1  0  0  0  0
  8  9  1  0  0  0  0
  8 24  2  0  0  0  0
  9 10  1  0  0  0  0
 10 11  2  0  0  0  0
 10 12  1  0  0  0  0
 12 13  1  0  0  0  0
 13 14  1  0  0  0  0
 14 15  1  0  0  0  0
 15 16  2  0  0  0  0
 15 17  1  0  0  0  0
 17 18  2  0  0  0  0
 18 19  1  0  0  0  0
 19 20  2  0  0  0  0
 20 21  1  0  0  0  0
 21 22  1  0  0  0  0
 21 23  2  0  0  0  0
 23 17  1  0  0  0  0
 24  4  1  0  0  0  0
M  END
>  <CHROM.1>
10.71187057,-162.30237922,75.25012642,137.92449952,-155.70783556,3.81011276
42.36243472,-44.27382222,3.41068433,-2.71618408,-1.07993340,-2.10499354

>  <Name>
design_13

>  <RI>
0

>  <Rbt.Current_Directory>
/home/ziqiaoxu/icml18-jtnn/VAEdesign

>  <Rbt.Executable>
rbdock ($Id: //depot/dev/client3/rdock/2013.1/src/exe/rbdock.cxx#4 $)

>  <Rbt.Library>
libRbt.so (2013.1, Build901 2013/11/27)

>  <Rbt.Parameter_File>
/export/apps/rDock/src/rDock_2013.1_src//data/scripts/dock.prm

>  <Rbt.Receptor>
/home/ziqiaoxu/icml18-jtnn/VAEdesign/targets/RdRp-SARS-CoV-2/pocket_docking.prm

>  <SCORE>
-28.3186

>  <SCORE.INTER>
-27.6695

>  <SCORE.INTER.CONST>
1

>  <SCORE.INTER.POLAR>
-3.98849

>  <SCORE.INTER.REPUL>
0.033049

>  <SCORE.INTER.ROT>
6

>  <SCORE.INTER.VDW>
-25.6739

>  <SCORE.INTER.norm>
-1.1529

>  <SCORE.INTRA>
-0.649064

>  <SCORE.INTRA.DIHEDRAL>
-5.16058

>  <SCORE.INTRA.DIHEDRAL.0>
13.8138

>  <SCORE.INTRA.POLAR>
0

>  <SCORE.INTRA.POLAR.0>
0

>  <SCORE.INTRA.REPUL>
0

>  <SCORE.INTRA.REPUL.0>
0

>  <SCORE.INTRA.VDW>
1.93123

>  <SCORE.INTRA.VDW.0>
-1.11366

>  <SCORE.INTRA.norm>
-0.0270443

>  <SCORE.RESTR>
0

>  <SCORE.RESTR.CAVITY>
0

>  <SCORE.RESTR.norm>
0

>  <SCORE.SYSTEM>
0

>  <SCORE.SYSTEM.CONST>
0

>  <SCORE.SYSTEM.DIHEDRAL>
0

>  <SCORE.SYSTEM.norm>
0

>  <SCORE.heavy>
24

>  <SCORE.norm>
-1.17994

$$$$
design_3
 OpenBabel05252019093D

 26 28  0  0  0  0  0  0  0  0999 V2000
   42.3371  -41.9353    0.8006 C   0  0  0  0  0  0  0  0  0  0  0  0
   41.3189  -42.7536    1.3940 N   0  0  0  0  0  0  0  0  0  0  0  0
   41.5817  -43.9753    2.0597 C   0  0  0  0  0  0  0  0  0  0  0  0
   42.7684  -44.3587    2.1322 O   0  0  0  0  0  0  0  0  0  0  0  0
   40.4943  -44.7826    2.6552 C   0  0  0  0  0  0  0  0  0  0  0  0
   40.6671  -44.9408    4.0914 N   0  0  0  0  0  0  0  0  0  0  0  0
   39.8183  -44.1599    4.9554 C   0  0  0  0  0  0  0  0  0  0  0  0
   38.4906  -44.7336    5.1691 C   0  0  0  0  0  0  0  0  0  0  0  0
   38.2092  -46.0685    5.0135 C   0  0  0  0  0  0  0  0  0  0  0  0
   36.9421  -46.5865    5.2234 C   0  0  0  0  0  0  0  0  0  0  0  0
   35.9258  -45.7453    5.6001 C   0  0  0  0  0  0  0  0  0  0  0  0
   36.1681  -44.4205    5.7631 C   0  0  0  0  0  0  0  0  0  0  0  0
   37.4554  -43.9109    5.5472 C   0  0  0  0  0  0  0  0  0  0  0  0
   41.6461  -45.8410    4.5517 C   0  0  0  0  0  0  0  0  0  0  0  0
   42.3412  -46.4815    3.7446 O   0  0  0  0  0  0  0  0  0  0  0  0
   41.8616  -46.0380    5.9981 C   0  0  0  0  0  0  0  0  0  0  0  0
   43.1447  -45.4208    6.4460 C   0  0  0  0  0  0  0  0  0  0  0  0
   44.3039  -45.2157    5.7316 C   0  0  0  0  0  0  0  0  0  0  0  0
   45.2419  -44.6276    6.4921 N   0  0  0  0  0  0  0  0  0  0  0  0
   46.5971  -44.2327    6.1488 C   0  0  0  0  0  0  0  0  0  0  0  0
   44.6976  -44.4485    7.7012 C   0  0  0  0  0  0  0  0  0  0  0  0
   45.1976  -43.8957    8.8651 C   0  0  0  0  0  0  0  0  0  0  0  0
   44.4228  -43.8285    9.9898 C   0  0  0  0  0  0  0  0  0  0  0  0
   43.1346  -44.3094    9.9810 C   0  0  0  0  0  0  0  0  0  0  0  0
   42.6186  -44.8577    8.8506 C   0  0  0  0  0  0  0  0  0  0  0  0
   43.4026  -44.9254    7.7138 C   0  0  0  0  0  0  0  0  0  0  0  0
  1  2  1  0  0  0  0
  2  3  1  0  0  0  0
  3  4  2  0  0  0  0
  3  5  1  0  0  0  0
  5  6  1  0  0  0  0
  6  7  1  0  0  0  0
  6 14  1  0  0  0  0
  7  8  1  0  0  0  0
  8  9  2  0  0  0  0
  9 10  1  0  0  0  0
 10 11  2  0  0  0  0
 11 12  1  0  0  0  0
 12 13  2  0  0  0  0
 13  8  1  0  0  0  0
 14 15  2  0  0  0  0
 14 16  1  0  0  0  0
 16 17  1  0  0  0  0
 17 18  2  0  0  0  0
 18 19  1  0  0  0  0
 19 20  1  0  0  0  0
 19 21  1  0  0  0  0
 21 22  2  0  0  0  0
 22 23  1  0  0  0  0
 23 24  2  0  0  0  0
 24 25  1  0  0  0  0
 25 26  2  0  0  0  0
 26 17  1  0  0  0  0
 26 21  1  0  0  0  0
M  END
>  <CHROM.1>
-119.21626463,104.59905155,82.13672145,23.14317130,-107.90166825,-28.63990572
41.60502603,-44.69218734,5.38370463,-2.63300541,0.15101050,1.74066532

>  <Name>
design_3

>  <RI>
0

>  <Rbt.Current_Directory>
/home/ziqiaoxu/icml18-jtnn/VAEdesign

>  <Rbt.Executable>
rbdock ($Id: //depot/dev/client3/rdock/2013.1/src/exe/rbdock.cxx#4 $)

>  <Rbt.Library>
libRbt.so (2013.1, Build901 2013/11/27)

>  <Rbt.Parameter_File>
/export/apps/rDock/src/rDock_2013.1_src//data/scripts/dock.prm

>  <Rbt.Receptor>
/home/ziqiaoxu/icml18-jtnn/VAEdesign/targets/RdRp-SARS-CoV-2/pocket_docking.prm

>  <SCORE>
-18.3708

>  <SCORE.INTER>
-18.727

>  <SCORE.INTER.CONST>
1

>  <SCORE.INTER.POLAR>
-1.31002

>  <SCORE.INTER.REPUL>
0

>  <SCORE.INTER.ROT>
6

>  <SCORE.INTER.VDW>
-25.6729

>  <SCORE.INTER.norm>
-0.720267

>  <SCORE.INTRA>
0.356151

>  <SCORE.INTRA.DIHEDRAL>
0.806625

>  <SCORE.INTRA.DIHEDRAL.0>
6.24935

>  <SCORE.INTRA.POLAR>
0

>  <SCORE.INTRA.POLAR.0>
0

>  <SCORE.INTRA.REPUL>
0

>  <SCORE.INTRA.REPUL.0>
0

>  <SCORE.INTRA.VDW>
-0.0471612

>  <SCORE.INTRA.VDW.0>
-2.6738

>  <SCORE.INTRA.norm>
0.0136981

>  <SCORE.RESTR>
0

>  <SCORE.RESTR.CAVITY>
0

>  <SCORE.RESTR.norm>
0

>  <SCORE.SYSTEM>
0

>  <SCORE.SYSTEM.CONST>
0

>  <SCORE.SYSTEM.DIHEDRAL>
0

>  <SCORE.SYSTEM.norm>
0

>  <SCORE.heavy>
26

>  <SCORE.norm>
-0.706569

$$$$
design_2
 OpenBabel05252019093D

 22 23  0  0  0  0  0  0  0  0999 V2000
   43.5309  -44.1198    9.3954 C   0  0  0  0  0  0  0  0  0  0  0  0
   42.3977  -44.9479    8.8732 C   0  0  0  0  0  0  0  0  0  0  0  0
   41.2248  -45.0993    9.5811 C   0  0  0  0  0  0  0  0  0  0  0  0
   40.1850  -45.8665    9.0891 C   0  0  0  0  0  0  0  0  0  0  0  0
   40.2673  -46.5163    7.8714 C   0  0  0  0  0  0  0  0  0  0  0  0
   38.9527  -47.4873    7.2475 S   0  0  0  0  0  0  0  0  0  0  0  0
   39.3334  -48.9388    7.1530 O   0  0  0  0  0  0  0  0  0  0  0  0
   37.7474  -47.4137    8.1579 O   0  0  0  0  0  0  0  0  0  0  0  0
   38.4568  -46.9424    5.6337 C   0  0  0  0  0  0  0  0  0  0  0  0
   37.7593  -45.6505    5.7588 C   0  0  0  0  0  0  0  0  0  0  0  0
   36.4259  -45.5412    5.4043 C   0  0  0  0  0  0  0  0  0  0  0  0
   35.7445  -44.3460    5.5096 C   0  0  0  0  0  0  0  0  0  0  0  0
   36.3687  -43.2071    5.9748 C   0  0  0  0  0  0  0  0  0  0  0  0
   35.5220  -41.6731    6.1180 S   0  0  0  0  0  0  0  0  0  0  0  0
   35.1161  -41.0535    4.5417 N   0  0  0  0  0  0  0  0  0  0  0  0
   36.4084  -40.6719    6.7803 O   0  0  0  0  0  0  0  0  0  0  0  0
   34.2597  -41.8140    6.8950 O   0  0  0  0  0  0  0  0  0  0  0  0
   37.6981  -43.3143    6.3287 C   0  0  0  0  0  0  0  0  0  0  0  0
   38.3904  -44.5038    6.2279 C   0  0  0  0  0  0  0  0  0  0  0  0
   41.4461  -46.3589    7.1693 C   0  0  0  0  0  0  0  0  0  0  0  0
   42.4899  -45.5923    7.6569 C   0  0  0  0  0  0  0  0  0  0  0  0
   43.7399  -45.4610    6.8494 C   0  0  0  0  0  0  0  0  0  0  0  0
  1  2  1  0  0  0  0
  2  3  2  0  0  0  0
  3  4  1  0  0  0  0
  4  5  2  0  0  0  0
  5  6  1  0  0  0  0
  5 20  1  0  0  0  0
  6  7  2  0  0  0  0
  6  8  2  0  0  0  0
  6  9  1  0  0  0  0
  9 10  1  0  0  0  0
 10 11  2  0  0  0  0
 11 12  1  0  0  0  0
 12 13  2  0  0  0  0
 13 14  1  0  0  0  0
 13 18  1  0  0  0  0
 14 15  1  0  0  0  0
 14 16  2  0  0  0  0
 14 17  2  0  0  0  0
 18 19  2  0  0  0  0
 19 10  1  0  0  0  0
 20 21  2  0  0  0  0
 21 22  1  0  0  0  0
 21  2  1  0  0  0  0
M  END
>  <CHROM.1>
-114.66398430,-71.52035964,-116.38319352,-67.67842444,-60.02338673,38.56306291
-44.77656612,6.96238034,-0.56402320,-0.37143743,0.05240920

>  <Name>
design_2

>  <RI>
0

>  <Rbt.Current_Directory>
/home/ziqiaoxu/icml18-jtnn/VAEdesign

>  <Rbt.Executable>
rbdock ($Id: //depot/dev/client3/rdock/2013.1/src/exe/rbdock.cxx#4 $)

>  <Rbt.Library>
libRbt.so (2013.1, Build901 2013/11/27)

>  <Rbt.Parameter_File>
/export/apps/rDock/src/rDock_2013.1_src//data/scripts/dock.prm

>  <Rbt.Receptor>
/home/ziqiaoxu/icml18-jtnn/VAEdesign/targets/RdRp-SARS-CoV-2/pocket_docking.prm

>  <SCORE>
-22.8114

>  <SCORE.INTER>
-21.3406

>  <SCORE.INTER.CONST>
1

>  <SCORE.INTER.POLAR>
-1.90163

>  <SCORE.INTER.REPUL>
0.0794576

>  <SCORE.INTER.ROT>
5

>  <SCORE.INTER.VDW>
-25.6724

>  <SCORE.INTER.norm>
-0.970029

>  <SCORE.INTRA>
-1.47074

>  <SCORE.INTRA.DIHEDRAL>
-1.96712

>  <SCORE.INTRA.DIHEDRAL.0>
5.44834

>  <SCORE.INTRA.POLAR>
0

>  <SCORE.INTRA.POLAR.0>
0

>  <SCORE.INTRA.REPUL>
0

>  <SCORE.INTRA.REPUL.0>
0

>  <SCORE.INTRA.VDW>
-0.487175

>  <SCORE.INTRA.VDW.0>
-2.72043

>  <SCORE.INTRA.norm>
-0.0668516

>  <SCORE.RESTR>
0

>  <SCORE.RESTR.CAVITY>
0

>  <SCORE.RESTR.norm>
0

>  <SCORE.SYSTEM>
0

>  <SCORE.SYSTEM.CONST>
0

>  <SCORE.SYSTEM.DIHEDRAL>
0

>  <SCORE.SYSTEM.norm>
0

>  <SCORE.heavy>
22

>  <SCORE.norm>
-1.03688

$$$$
design_6
 OpenBabel05252019093D

 23 25  0  0  0  0  0  0  0  0999 V2000
   45.6056  -43.9809    7.2563 C   0  0  0  0  0  0  0  0  0  0  0  0
   44.6335  -44.8645    6.6485 N   0  0  0  0  0  0  0  0  0  0  0  0
   44.8812  -45.3731    5.3340 C   0  0  0  0  0  0  0  0  0  0  0  0
   43.8979  -44.8542    4.3453 C   0  0  0  0  0  0  0  0  0  0  0  0
   43.5735  -43.6338    4.4290 O   0  0  0  0  0  0  0  0  0  0  0  0
   43.3383  -45.6832    3.3449 N   0  0  0  0  0  0  0  0  0  0  0  0
   42.3947  -45.1606    2.4077 C   0  0  0  0  0  0  0  0  0  0  0  0
   43.0216  -44.3731    1.2953 C   0  0  0  0  0  0  0  0  0  0  0  0
   43.9941  -45.2833    0.6163 C   0  0  0  0  0  0  0  0  0  0  0  0
   45.3372  -45.2310    0.8975 C   0  0  0  0  0  0  0  0  0  0  0  0
   46.2637  -46.0672    0.2749 C   0  0  0  0  0  0  0  0  0  0  0  0
   45.8212  -46.9435   -0.6220 N   0  0  0  0  0  0  0  0  0  0  0  0
   44.5135  -47.0078   -0.9085 C   0  0  0  0  0  0  0  0  0  0  0  0
   43.5588  -46.2077   -0.3244 C   0  0  0  0  0  0  0  0  0  0  0  0
   43.4607  -45.1849    7.3967 C   0  0  0  0  0  0  0  0  0  0  0  0
   42.5053  -45.9964    7.0054 N   0  0  0  0  0  0  0  0  0  0  0  0
   41.4720  -46.2126    7.7785 C   0  0  0  0  0  0  0  0  0  0  0  0
   40.3748  -47.0516    7.4965 C   0  0  0  0  0  0  0  0  0  0  0  0
   39.3578  -47.1812    8.4065 C   0  0  0  0  0  0  0  0  0  0  0  0
   39.3178  -46.5336    9.6224 C   0  0  0  0  0  0  0  0  0  0  0  0
   40.3901  -45.7108    9.9037 C   0  0  0  0  0  0  0  0  0  0  0  0
   41.4346  -45.5704    8.9822 C   0  0  0  0  0  0  0  0  0  0  0  0
   42.9114  -44.6806    8.9276 S   0  0  0  0  0  0  0  0  0  0  0  0
  1  2  1  0  0  0  0
  2  3  1  0  0  0  0
  2 15  1  0  0  0  0
  3  4  1  0  0  0  0
  4  5  2  0  0  0  0
  4  6  1  0  0  0  0
  6  7  1  0  0  0  0
  7  8  1  0  0  0  0
  8  9  1  0  0  0  0
  9 10  2  0  0  0  0
 10 11  1  0  0  0  0
 11 12  2  0  0  0  0
 12 13  1  0  0  0  0
 13 14  2  0  0  0  0
 14  9  1  0  0  0  0
 15 16  2  0  0  0  0
 16 17  1  0  0  0  0
 17 18  2  0  0  0  0
 18 19  1  0  0  0  0
 19 20  2  0  0  0  0
 20 21  1  0  0  0  0
 21 22  2  0  0  0  0
 22 23  1  0  0  0  0
 22 17  1  0  0  0  0
 23 15  1  0  0  0  0
M  END
>  <CHROM.1>
-113.93273622,41.18439031,78.71721621,57.52063609,-98.90790257,-178.01907330
43.15942706,-45.52138324,5.01159243,-1.98667913,-0.45476473,-1.77609580

>  <Name>
design_6

>  <RI>
0

>  <Rbt.Current_Directory>
/home/ziqiaoxu/icml18-jtnn/VAEdesign

>  <Rbt.Executable>
rbdock ($Id: //depot/dev/client3/rdock/2013.1/src/exe/rbdock.cxx#4 $)

>  <Rbt.Library>
libRbt.so (2013.1, Build901 2013/11/27)

>  <Rbt.Parameter_File>
/export/apps/rDock/src/rDock_2013.1_src//data/scripts/dock.prm

>  <Rbt.Receptor>
/home/ziqiaoxu/icml18-jtnn/VAEdesign/targets/RdRp-SARS-CoV-2/pocket_docking.prm

>  <SCORE>
-19.6867

>  <SCORE.INTER>
-17.5297

>  <SCORE.INTER.CONST>
1

>  <SCORE.INTER.POLAR>
-0.959166

>  <SCORE.INTER.REPUL>
0

>  <SCORE.INTER.ROT>
6

>  <SCORE.INTER.VDW>
-25.6686

>  <SCORE.INTER.norm>
-0.762162

>  <SCORE.INTRA>
-2.157

>  <SCORE.INTRA.DIHEDRAL>
0.138532

>  <SCORE.INTRA.DIHEDRAL.0>
5.68265

>  <SCORE.INTRA.POLAR>
0

>  <SCORE.INTRA.POLAR.0>
0

>  <SCORE.INTRA.REPUL>
0

>  <SCORE.INTRA.REPUL.0>
0

>  <SCORE.INTRA.VDW>
-2.22626

>  <SCORE.INTRA.VDW.0>
0.166305

>  <SCORE.INTRA.norm>
-0.0937825

>  <SCORE.RESTR>
0

>  <SCORE.RESTR.CAVITY>
0

>  <SCORE.RESTR.norm>
0

>  <SCORE.SYSTEM>
0

>  <SCORE.SYSTEM.CONST>
0

>  <SCORE.SYSTEM.DIHEDRAL>
0

>  <SCORE.SYSTEM.norm>
0

>  <SCORE.heavy>
23

>  <SCORE.norm>
-0.855944

$$$$
design_9
 OpenBabel05252019093D

 26 28  0  0  0  0  0  0  0  0999 V2000
   45.8140  -40.6286   -1.2273 C   0  0  0  0  0  0  0  0  0  0  0  0
   44.5558  -40.6597   -0.4323 C   0  0  0  0  0  0  0  0  0  0  0  0
   43.8670  -39.5215   -0.0718 C   0  0  0  0  0  0  0  0  0  0  0  0
   42.7038  -39.5911    0.6658 C   0  0  0  0  0  0  0  0  0  0  0  0
   42.1884  -40.8003    1.0690 C   0  0  0  0  0  0  0  0  0  0  0  0
   42.8588  -41.9724    0.7224 C   0  0  0  0  0  0  0  0  0  0  0  0
   42.2815  -43.2406    1.1686 C   0  0  0  0  0  0  0  0  0  0  0  0
   42.9700  -44.2915    1.0653 O   0  0  0  0  0  0  0  0  0  0  0  0
   40.9800  -43.3077    1.7073 N   0  0  0  0  0  0  0  0  0  0  0  0
   40.4264  -44.5494    2.1325 C   0  0  0  0  0  0  0  0  0  0  0  0
   40.3547  -44.7565    3.5805 C   0  0  0  0  0  0  0  0  0  0  0  0
   40.0340  -43.8148    4.3382 O   0  0  0  0  0  0  0  0  0  0  0  0
   40.6588  -46.0578    4.1104 N   0  0  0  0  0  0  0  0  0  0  0  0
   40.6053  -46.3171    5.5111 C   0  0  0  0  0  0  0  0  0  0  0  0
   41.7184  -45.7905    6.3134 C   0  0  0  0  0  0  0  0  0  0  0  0
   42.9199  -45.3594    5.8187 C   0  0  0  0  0  0  0  0  0  0  0  0
   43.9536  -44.8643    6.6239 C   0  0  0  0  0  0  0  0  0  0  0  0
   43.7600  -44.8048    7.9804 C   0  0  0  0  0  0  0  0  0  0  0  0
   42.5604  -45.2324    8.5020 C   0  0  0  0  0  0  0  0  0  0  0  0
   41.5700  -45.7091    7.7076 C   0  0  0  0  0  0  0  0  0  0  0  0
   40.3256  -46.1513    8.2627 N   0  0  0  0  0  0  0  0  0  0  0  0
   39.4552  -45.4878    9.0271 C   0  0  0  0  0  0  0  0  0  0  0  0
   38.4088  -46.3557    9.3022 C   0  0  0  0  0  0  0  0  0  0  0  0
   38.6689  -47.5175    8.7014 N   0  0  0  0  0  0  0  0  0  0  0  0
   39.8540  -47.3929    8.0581 C   0  0  0  0  0  0  0  0  0  0  0  0
   44.0030  -41.8729   -0.0052 C   0  0  0  0  0  0  0  0  0  0  0  0
  1  2  1  0  0  0  0
  2  3  2  0  0  0  0
  3  4  1  0  0  0  0
  4  5  2  0  0  0  0
  5  6  1  0  0  0  0
  6  7  1  0  0  0  0
  6 26  2  0  0  0  0
  7  8  2  0  0  0  0
  7  9  1  0  0  0  0
  9 10  1  0  0  0  0
 10 11  1  0  0  0  0
 11 12  2  0  0  0  0
 11 13  1  0  0  0  0
 13 14  1  0  0  0  0
 14 15  1  0  0  0  0
 15 16  2  0  0  0  0
 16 17  1  0  0  0  0
 17 18  2  0  0  0  0
 18 19  1  0  0  0  0
 19 20  2  0  0  0  0
 20 21  1  0  0  0  0
 20 15  1  0  0  0  0
 21 22  1  0  0  0  0
 22 23  2  0  0  0  0
 23 24  1  0  0  0  0
 24 25  2  0  0  0  0
 25 21  1  0  0  0  0
 26  2  1  0  0  0  0
M  END
>  <CHROM.1>
-168.41203739,105.39286075,39.72475985,-75.44173260,-15.91925824,-123.10621829
41.80421346,-44.09508750,4.21980836,-1.20933698,0.40278064,1.99115691

>  <Name>
design_9

>  <RI>
0

>  <Rbt.Current_Directory>
/home/ziqiaoxu/icml18-jtnn/VAEdesign

>  <Rbt.Executable>
rbdock ($Id: //depot/dev/client3/rdock/2013.1/src/exe/rbdock.cxx#4 $)

>  <Rbt.Library>
libRbt.so (2013.1, Build901 2013/11/27)

>  <Rbt.Parameter_File>
/export/apps/rDock/src/rDock_2013.1_src//data/scripts/dock.prm

>  <Rbt.Receptor>
/home/ziqiaoxu/icml18-jtnn/VAEdesign/targets/RdRp-SARS-CoV-2/pocket_docking.prm

>  <SCORE>
-21.526

>  <SCORE.INTER>
-20.7729

>  <SCORE.INTER.CONST>
1

>  <SCORE.INTER.POLAR>
-1.91309

>  <SCORE.INTER.REPUL>
0

>  <SCORE.INTER.ROT>
6

>  <SCORE.INTER.VDW>
-25.6684

>  <SCORE.INTER.norm>
-0.798958

>  <SCORE.INTRA>
-0.753097

>  <SCORE.INTRA.DIHEDRAL>
-3.2965

>  <SCORE.INTRA.DIHEDRAL.0>
17.2517

>  <SCORE.INTRA.POLAR>
0

>  <SCORE.INTRA.POLAR.0>
0

>  <SCORE.INTRA.REPUL>
0

>  <SCORE.INTRA.REPUL.0>
0

>  <SCORE.INTRA.VDW>
0.895151

>  <SCORE.INTRA.VDW.0>
-1.84512

>  <SCORE.INTRA.norm>
-0.0289653

>  <SCORE.RESTR>
0

>  <SCORE.RESTR.CAVITY>
0

>  <SCORE.RESTR.norm>
0

>  <SCORE.SYSTEM>
0

>  <SCORE.SYSTEM.CONST>
0

>  <SCORE.SYSTEM.DIHEDRAL>
0

>  <SCORE.SYSTEM.norm>
0

>  <SCORE.heavy>
26

>  <SCORE.norm>
-0.827924

$$$$
design_3
 OpenBabel05252019093D

 23 25  0  0  0  0  0  0  0  0999 V2000
   39.8263  -42.6566   10.6560 C   0  0  0  0  0  0  0  0  0  0  0  0
   39.8079  -44.0897   10.2703 C   0  0  0  0  0  0  0  0  0  0  0  0
   40.3107  -45.1505   10.9185 N   0  0  0  0  0  0  0  0  0  0  0  0
   40.0749  -46.2592   10.2211 N   0  0  0  0  0  0  0  0  0  0  0  0
   39.4113  -45.9204    9.1063 C   0  0  0  0  0  0  0  0  0  0  0  0
   38.9465  -46.8441    8.0526 C   0  0  0  0  0  0  0  0  0  0  0  0
   39.2477  -48.1670    8.0941 C   0  0  0  0  0  0  0  0  0  0  0  0
   38.8055  -49.0183    7.1108 C   0  0  0  0  0  0  0  0  0  0  0  0
   38.0317  -48.5079    6.0510 C   0  0  0  0  0  0  0  0  0  0  0  0
   37.7156  -47.1884    5.9843 C   0  0  0  0  0  0  0  0  0  0  0  0
   36.9123  -46.5061    4.9394 C   0  0  0  0  0  0  0  0  0  0  0  0
   36.3864  -45.2426    5.4085 N   0  0  0  0  0  0  0  0  0  0  0  0
   37.1135  -44.0593    5.5257 C   0  0  0  0  0  0  0  0  0  0  0  0
   38.3610  -44.1565    5.1535 O   0  0  0  0  0  0  0  0  0  0  0  0
   36.7094  -42.7605    5.9947 C   0  0  0  0  0  0  0  0  0  0  0  0
   35.3464  -42.4181    5.8054 C   0  0  0  0  0  0  0  0  0  0  0  0
   34.8868  -41.1712    6.1670 C   0  0  0  0  0  0  0  0  0  0  0  0
   35.7640  -40.2516    6.7174 C   0  0  0  0  0  0  0  0  0  0  0  0
   37.0472  -40.5989    6.8872 N   0  0  0  0  0  0  0  0  0  0  0  0
   37.5314  -41.8417    6.5341 C   0  0  0  0  0  0  0  0  0  0  0  0
   38.9559  -42.1276    6.8227 C   0  0  0  0  0  0  0  0  0  0  0  0
   38.1956  -46.3684    7.0169 C   0  0  0  0  0  0  0  0  0  0  0  0
   39.2522  -44.5998    9.1430 N   0  0  0  0  0  0  0  0  0  0  0  0
  1  2  1  0  0  0  0
  2  3  2  0  0  0  0
  3  4  1  0  0  0  0
  4  5  1  0  0  0  0
  5  6  1  0  0  0  0
  5 23  2  0  0  0  0
  6  7  2  0  0  0  0
  7  8  1  0  0  0  0
  8  9  2  0  0  0  0
  9 10  1  0  0  0  0
 10 11  1  0  0  0  0
 10 22  2  0  0  0  0
 11 12  1  0  0  0  0
 12 13  1  0  0  0  0
 13 14  2  0  0  0  0
 13 15  1  0  0  0  0
 15 16  2  0  0  0  0
 16 17  1  0  0  0  0
 17 18  2  0  0  0  0
 18 19  1  0  0  0  0
 19 20  2  0  0  0  0
 20 21  1  0  0  0  0
 20 15  1  0  0  0  0
 22  6  1  0  0  0  0
 23  2  1  0  0  0  0
M  END
>  <CHROM.1>
-4.52037402,159.68780648,77.37416727,-29.32643584,38.05030487,-44.58284157
7.34276298,-0.73613614,-0.93655458,0.33893010

>  <Name>
design_3

>  <RI>
0

>  <Rbt.Current_Directory>
/home/ziqiaoxu/icml18-jtnn/VAEdesign

>  <Rbt.Executable>
rbdock ($Id: //depot/dev/client3/rdock/2013.1/src/exe/rbdock.cxx#4 $)

>  <Rbt.Library>
libRbt.so (2013.1, Build901 2013/11/27)

>  <Rbt.Parameter_File>
/export/apps/rDock/src/rDock_2013.1_src//data/scripts/dock.prm

>  <Rbt.Receptor>
/home/ziqiaoxu/icml18-jtnn/VAEdesign/targets/RdRp-SARS-CoV-2/pocket_docking.prm

>  <SCORE>
-19.9556

>  <SCORE.INTER>
-20.8489

>  <SCORE.INTER.CONST>
1

>  <SCORE.INTER.POLAR>
-1.34762

>  <SCORE.INTER.REPUL>
0

>  <SCORE.INTER.ROT>
4

>  <SCORE.INTER.VDW>
-25.6669

>  <SCORE.INTER.norm>
-0.906472

>  <SCORE.INTRA>
0.893272

>  <SCORE.INTRA.DIHEDRAL>
-0.492341

>  <SCORE.INTRA.DIHEDRAL.0>
5.18351

>  <SCORE.INTRA.POLAR>
0

>  <SCORE.INTRA.POLAR.0>
0

>  <SCORE.INTRA.REPUL>
0

>  <SCORE.INTRA.REPUL.0>
0

>  <SCORE.INTRA.VDW>
1.13944

>  <SCORE.INTRA.VDW.0>
-1.14153

>  <SCORE.INTRA.norm>
0.0388379

>  <SCORE.RESTR>
0

>  <SCORE.RESTR.CAVITY>
0

>  <SCORE.RESTR.norm>
0

>  <SCORE.SYSTEM>
0

>  <SCORE.SYSTEM.CONST>
0

>  <SCORE.SYSTEM.DIHEDRAL>
0

>  <SCORE.SYSTEM.norm>
0

>  <SCORE.heavy>
23

>  <SCORE.norm>
-0.867634

$$$$
design_13
 OpenBabel05252019093D

 24 26  0  0  0  0  0  0  0  0999 V2000
   47.3619  -47.4544    2.3953 C   0  0  0  0  0  0  0  0  0  0  0  0
   46.9118  -46.0569    2.2142 C   0  0  2  0  0  0  0  0  0  0  0  0
   46.7983  -45.1716    3.4023 C   0  0  0  0  0  0  0  0  0  0  0  0
   46.2539  -45.6238    4.6100 N   0  0  0  0  0  0  0  0  0  0  0  0
   45.2969  -45.0268    5.4539 C   0  0  0  0  0  0  0  0  0  0  0  0
   44.8091  -43.9232    5.1887 O   0  0  0  0  0  0  0  0  0  0  0  0
   44.8766  -45.6886    6.6279 N   0  0  0  0  0  0  0  0  0  0  0  0
   43.9494  -45.2204    7.5770 C   0  0  0  0  0  0  0  0  0  0  0  0
   44.1811  -44.1785    8.4261 C   0  0  0  0  0  0  0  0  0  0  0  0
   43.2327  -43.7235    9.3266 C   0  0  0  0  0  0  0  0  0  0  0  0
   41.9878  -44.3647    9.3617 C   0  0  0  0  0  0  0  0  0  0  0  0
   41.6950  -45.4114    8.5423 C   0  0  0  0  0  0  0  0  0  0  0  0
   40.4339  -46.1691    8.5527 C   0  0  0  0  0  0  0  0  0  0  0  0
   39.8081  -46.5219    9.7271 N   0  0  0  0  0  0  0  0  0  0  0  0
   38.6971  -47.1568    9.4591 N   0  0  0  0  0  0  0  0  0  0  0  0
   38.5383  -47.2518    8.1333 C   0  0  0  0  0  0  0  0  0  0  0  0
   39.6429  -46.6223    7.6046 N   0  0  0  0  0  0  0  0  0  0  0  0
   39.8333  -46.4805    6.1798 C   0  0  0  0  0  0  0  0  0  0  0  0
   42.6888  -45.8181    7.6621 C   0  0  0  0  0  0  0  0  0  0  0  0
   45.6035  -46.0175    1.4441 C   0  0  0  0  0  0  0  0  0  0  0  0
   44.3380  -45.7806    1.8913 C   0  0  0  0  0  0  0  0  0  0  0  0
   43.3517  -45.8048    0.9864 C   0  0  0  0  0  0  0  0  0  0  0  0
   43.6908  -46.0647   -0.3129 C   0  0  0  0  0  0  0  0  0  0  0  0
   45.3895  -46.2679   -0.2245 S   0  0  0  0  0  0  0  0  0  0  0  0
  2  1  1  1  0  0  0
  2  3  1  0  0  0  0
  2 20  1  0  0  0  0
  3  4  1  0  0  0  0
  4  5  1  0  0  0  0
  5  6  2  0  0  0  0
  5  7  1  0  0  0  0
  7  8  1  0  0  0  0
  8  9  2  0  0  0  0
  9 10  1  0  0  0  0
 10 11  2  0  0  0  0
 11 12  1  0  0  0  0
 12 13  1  0  0  0  0
 12 19  2  0  0  0  0
 13 14  2  0  0  0  0
 14 15  1  0  0  0  0
 15 16  2  0  0  0  0
 16 17  1  0  0  0  0
 17 18  1  0  0  0  0
 17 13  1  0  0  0  0
 19  8  1  0  0  0  0
 20 21  2  0  0  0  0
 21 22  1  0  0  0  0
 22 23  2  0  0  0  0
 23 24  1  0  0  0  0
 24 20  1  0  0  0  0
M  END
>  <CHROM.1>
-42.16384018,-133.06794773,-69.73020857,-41.16155164,104.77457840,43.44335923
-45.78409291,5.26347210,-0.94048316,0.30899565,1.33922844

>  <Name>
design_13

>  <RI>
0

>  <Rbt.Current_Directory>
/home/ziqiaoxu/icml18-jtnn/VAEdesign

>  <Rbt.Executable>
rbdock ($Id: //depot/dev/client3/rdock/2013.1/src/exe/rbdock.cxx#4 $)

>  <Rbt.Library>
libRbt.so (2013.1, Build901 2013/11/27)

>  <Rbt.Parameter_File>
/export/apps/rDock/src/rDock_2013.1_src//data/scripts/dock.prm

>  <Rbt.Receptor>
/home/ziqiaoxu/icml18-jtnn/VAEdesign/targets/RdRp-SARS-CoV-2/pocket_docking.prm

>  <SCORE>
-13.1182

>  <SCORE.INTER>
-20.285

>  <SCORE.INTER.CONST>
1

>  <SCORE.INTER.POLAR>
-1.49395

>  <SCORE.INTER.REPUL>
0.012115

>  <SCORE.INTER.ROT>
5

>  <SCORE.INTER.VDW>
-25.6661

>  <SCORE.INTER.norm>
-0.845207

>  <SCORE.INTRA>
7.16673

>  <SCORE.INTRA.DIHEDRAL>
15.6353

>  <SCORE.INTRA.DIHEDRAL.0>
4.42028

>  <SCORE.INTRA.POLAR>
0

>  <SCORE.INTRA.POLAR.0>
0

>  <SCORE.INTRA.REPUL>
0

>  <SCORE.INTRA.REPUL.0>
0

>  <SCORE.INTRA.VDW>
-0.650921

>  <SCORE.INTRA.VDW.0>
-1.35511

>  <SCORE.INTRA.norm>
0.298614

>  <SCORE.RESTR>
0

>  <SCORE.RESTR.CAVITY>
0

>  <SCORE.RESTR.norm>
0

>  <SCORE.SYSTEM>
0

>  <SCORE.SYSTEM.CONST>
0

>  <SCORE.SYSTEM.DIHEDRAL>
0

>  <SCORE.SYSTEM.norm>
0

>  <SCORE.heavy>
24

>  <SCORE.norm>
-0.546593

$$$$
design_3
 OpenBabel05252019093D

 21 22  0  0  0  0  0  0  0  0999 V2000
   37.9347  -43.2259    5.6735 O   0  0  0  0  0  0  0  0  0  0  0  0
   36.8115  -43.7836    5.5911 C   0  0  0  0  0  0  0  0  0  0  0  0
   36.7451  -45.2424    5.3280 C   0  0  0  0  0  0  0  0  0  0  0  0
   37.7690  -45.9602    6.1633 C   0  0  0  0  0  0  0  0  0  0  0  0
   37.7920  -47.3737    5.9219 N   0  0  0  0  0  0  0  0  0  0  0  0
   39.0007  -48.1894    6.8038 S   0  0  0  0  0  0  0  0  0  0  0  0
   39.9995  -48.7386    5.7945 O   0  0  0  0  0  0  0  0  0  0  0  0
   38.4755  -49.3667    7.5550 O   0  0  0  0  0  0  0  0  0  0  0  0
   39.8442  -47.1381    7.9140 C   0  0  0  0  0  0  0  0  0  0  0  0
   39.3009  -46.9135    9.1476 C   0  0  0  0  0  0  0  0  0  0  0  0
   39.9350  -46.0884   10.0573 C   0  0  0  0  0  0  0  0  0  0  0  0
   41.1299  -45.4607    9.7686 C   0  0  0  0  0  0  0  0  0  0  0  0
   41.7730  -44.6473   10.6407 F   0  0  0  0  0  0  0  0  0  0  0  0
   41.6800  -45.6915    8.5125 C   0  0  0  0  0  0  0  0  0  0  0  0
   41.0384  -46.5183    7.6094 C   0  0  0  0  0  0  0  0  0  0  0  0
   35.6439  -43.0031    5.7517 N   0  0  0  0  0  0  0  0  0  0  0  0
   35.7175  -41.5985    6.0050 C   0  0  0  0  0  0  0  0  0  0  0  0
   35.0425  -40.7599    4.9406 C   0  0  0  0  0  0  0  0  0  0  0  0
   34.9528  -39.4052    5.6300 C   0  0  0  0  0  0  0  0  0  0  0  0
   34.7858  -39.7225    7.0960 C   0  0  0  0  0  0  0  0  0  0  0  0
   34.9156  -41.2148    7.2450 C   0  0  0  0  0  0  0  0  0  0  0  0
  1  2  2  0  0  0  0
  2  3  1  0  0  0  0
  2 16  1  0  0  0  0
  3  4  1  0  0  0  0
  4  5  1  0  0  0  0
  5  6  1  0  0  0  0
  6  7  2  0  0  0  0
  6  8  2  0  0  0  0
  6  9  1  0  0  0  0
  9 10  2  0  0  0  0
 10 11  1  0  0  0  0
 11 12  2  0  0  0  0
 12 13  1  0  0  0  0
 12 14  1  0  0  0  0
 14 15  2  0  0  0  0
 15  9  1  0  0  0  0
 16 17  1  0  0  0  0
 17 18  1  0  0  0  0
 18 19  1  0  0  0  0
 19 20  1  0  0  0  0
 20 21  1  0  0  0  0
 21 17  1  0  0  0  0
M  END
>  <CHROM.1>
43.11593867,-177.89315272,177.09592619,-114.28377138,84.47779226,119.65057912
38.17407301,-44.98475960,7.08425420,2.48517012,-0.74547347,0.40821820

>  <Name>
design_3

>  <RI>
0

>  <Rbt.Current_Directory>
/home/ziqiaoxu/icml18-jtnn/VAEdesign

>  <Rbt.Executable>
rbdock ($Id: //depot/dev/client3/rdock/2013.1/src/exe/rbdock.cxx#4 $)

>  <Rbt.Library>
libRbt.so (2013.1, Build901 2013/11/27)

>  <Rbt.Parameter_File>
/export/apps/rDock/src/rDock_2013.1_src//data/scripts/dock.prm

>  <Rbt.Receptor>
/home/ziqiaoxu/icml18-jtnn/VAEdesign/targets/RdRp-SARS-CoV-2/pocket_docking.prm

>  <SCORE>
-16.4501

>  <SCORE.INTER>
-17.4245

>  <SCORE.INTER.CONST>
1

>  <SCORE.INTER.POLAR>
-0.929377

>  <SCORE.INTER.REPUL>
0

>  <SCORE.INTER.ROT>
6

>  <SCORE.INTER.VDW>
-25.6646

>  <SCORE.INTER.norm>
-0.829736

>  <SCORE.INTRA>
0.97438

>  <SCORE.INTRA.DIHEDRAL>
3.24792

>  <SCORE.INTRA.DIHEDRAL.0>
3.87199

>  <SCORE.INTRA.POLAR>
0

>  <SCORE.INTRA.POLAR.0>
0

>  <SCORE.INTRA.REPUL>
0

>  <SCORE.INTRA.REPUL.0>
0

>  <SCORE.INTRA.VDW>
-0.649581

>  <SCORE.INTRA.VDW.0>
-0.684967

>  <SCORE.INTRA.norm>
0.0463991

>  <SCORE.RESTR>
0

>  <SCORE.RESTR.CAVITY>
0

>  <SCORE.RESTR.norm>
0

>  <SCORE.SYSTEM>
0

>  <SCORE.SYSTEM.CONST>
0

>  <SCORE.SYSTEM.DIHEDRAL>
0

>  <SCORE.SYSTEM.norm>
0

>  <SCORE.heavy>
21

>  <SCORE.norm>
-0.783337

$$$$
design_17
 OpenBabel05252019093D

 23 25  0  0  0  0  0  0  0  0999 V2000
   39.9741  -47.0739    5.4821 C   0  0  0  0  0  0  0  0  0  0  0  0
   40.0814  -47.9883    6.6707 C   0  0  0  0  0  0  0  0  0  0  0  0
   39.9842  -47.1963    7.9471 C   0  0  0  0  0  0  0  0  0  0  0  0
   39.0334  -47.3251    8.8863 N   0  0  0  0  0  0  0  0  0  0  0  0
   39.2947  -46.4540    9.8534 N   0  0  0  0  0  0  0  0  0  0  0  0
   40.4023  -45.7451    9.5790 C   0  0  0  0  0  0  0  0  0  0  0  0
   41.0930  -44.6760   10.3364 C   0  0  0  0  0  0  0  0  0  0  0  0
   40.2201  -43.4770   10.4249 C   0  0  0  0  0  0  0  0  0  0  0  0
   40.1833  -42.6691    9.2422 N   0  0  0  0  0  0  0  0  0  0  0  0
   40.1500  -41.2589    9.3623 C   0  0  0  0  0  0  0  0  0  0  0  0
   40.1539  -40.7655   10.5196 O   0  0  0  0  0  0  0  0  0  0  0  0
   40.1113  -40.3425    8.2355 C   0  0  0  0  0  0  0  0  0  0  0  0
   40.3997  -39.0079    8.4050 C   0  0  0  0  0  0  0  0  0  0  0  0
   40.3440  -38.1878    7.2864 C   0  0  0  0  0  0  0  0  0  0  0  0
   40.0204  -38.6211    6.0245 C   0  0  0  0  0  0  0  0  0  0  0  0
   39.9706  -37.7590    4.8942 N   0  0  0  0  0  0  0  0  0  0  0  0
   40.1740  -36.4303    4.9001 C   0  0  0  0  0  0  0  0  0  0  0  0
   40.0473  -35.9189    3.6227 C   0  0  0  0  0  0  0  0  0  0  0  0
   39.7556  -36.9781    2.8101 C   0  0  0  0  0  0  0  0  0  0  0  0
   39.7155  -38.1018    3.6279 C   0  0  0  0  0  0  0  0  0  0  0  0
   39.7326  -39.9704    5.8724 C   0  0  0  0  0  0  0  0  0  0  0  0
   39.7831  -40.8116    6.9850 C   0  0  0  0  0  0  0  0  0  0  0  0
   40.8151  -46.2332    8.3735 N   0  0  0  0  0  0  0  0  0  0  0  0
  1  2  1  0  0  0  0
  2  3  1  0  0  0  0
  3  4  2  0  0  0  0
  4  5  1  0  0  0  0
  5  6  1  0  0  0  0
  6  7  1  0  0  0  0
  6 23  2  0  0  0  0
  7  8  1  0  0  0  0
  8  9  1  0  0  0  0
  9 10  1  0  0  0  0
 10 11  2  0  0  0  0
 10 12  1  0  0  0  0
 12 13  2  0  0  0  0
 13 14  1  0  0  0  0
 14 15  2  0  0  0  0
 15 16  1  0  0  0  0
 15 21  1  0  0  0  0
 16 17  1  0  0  0  0
 17 18  2  0  0  0  0
 18 19  1  0  0  0  0
 19 20  2  0  0  0  0
 20 16  1  0  0  0  0
 21 22  2  0  0  0  0
 22 12  1  0  0  0  0
 23  3  1  0  0  0  0
M  END
>  <CHROM.1>
118.10192445,-65.32482646,-78.51929245,-141.22299600,-164.35743333,-2.68973943
40.05835439,-41.96840742,7.41222290,1.53899029,1.49006656,2.77747106

>  <Name>
design_17

>  <RI>
0

>  <Rbt.Current_Directory>
/home/ziqiaoxu/icml18-jtnn/VAEdesign

>  <Rbt.Executable>
rbdock ($Id: //depot/dev/client3/rdock/2013.1/src/exe/rbdock.cxx#4 $)

>  <Rbt.Library>
libRbt.so (2013.1, Build901 2013/11/27)

>  <Rbt.Parameter_File>
/export/apps/rDock/src/rDock_2013.1_src//data/scripts/dock.prm

>  <Rbt.Receptor>
/home/ziqiaoxu/icml18-jtnn/VAEdesign/targets/RdRp-SARS-CoV-2/pocket_docking.prm

>  <SCORE>
-18.6291

>  <SCORE.INTER>
-17.9385

>  <SCORE.INTER.CONST>
1

>  <SCORE.INTER.POLAR>
-1.08099

>  <SCORE.INTER.REPUL>
0

>  <SCORE.INTER.ROT>
6

>  <SCORE.INTER.VDW>
-25.6631

>  <SCORE.INTER.norm>
-0.779934

>  <SCORE.INTRA>
-0.690655

>  <SCORE.INTRA.DIHEDRAL>
0.576448

>  <SCORE.INTRA.DIHEDRAL.0>
5.48096

>  <SCORE.INTRA.POLAR>
0

>  <SCORE.INTRA.POLAR.0>
0

>  <SCORE.INTRA.REPUL>
0

>  <SCORE.INTRA.REPUL.0>
0

>  <SCORE.INTRA.VDW>
-0.978879

>  <SCORE.INTRA.VDW.0>
0.172211

>  <SCORE.INTRA.norm>
-0.0300285

>  <SCORE.RESTR>
0

>  <SCORE.RESTR.CAVITY>
0

>  <SCORE.RESTR.norm>
0

>  <SCORE.SYSTEM>
0

>  <SCORE.SYSTEM.CONST>
0

>  <SCORE.SYSTEM.DIHEDRAL>
0

>  <SCORE.SYSTEM.norm>
0

>  <SCORE.heavy>
23

>  <SCORE.norm>
-0.809962

$$$$
design_4
 OpenBabel05252019093D

 23 25  0  0  0  0  0  0  0  0999 V2000
   38.6958  -48.9045    7.0965 C   0  0  0  0  0  0  0  0  0  0  0  0
   39.2554  -47.7409    7.8656 C   0  0  0  0  0  0  0  0  0  0  0  0
   40.4415  -47.1904    7.7103 N   0  0  0  0  0  0  0  0  0  0  0  0
   40.7929  -46.1829    8.4515 C   0  0  0  0  0  0  0  0  0  0  0  0
   42.1233  -45.5416    8.2862 C   0  0  0  0  0  0  0  0  0  0  0  0
   42.5549  -44.6095    9.2031 C   0  0  0  0  0  0  0  0  0  0  0  0
   43.7653  -43.9908    9.0831 C   0  0  0  0  0  0  0  0  0  0  0  0
   44.6171  -44.2637    8.0423 C   0  0  0  0  0  0  0  0  0  0  0  0
   45.7919  -43.6805    7.9003 O   0  0  0  0  0  0  0  0  0  0  0  0
   46.6117  -43.9369    6.9057 C   0  0  0  0  0  0  0  0  0  0  0  0
   47.7061  -43.3531    6.8278 O   0  0  0  0  0  0  0  0  0  0  0  0
   46.2316  -44.8627    5.9569 C   0  0  0  0  0  0  0  0  0  0  0  0
   47.1475  -45.1340    4.8640 C   0  0  0  0  0  0  0  0  0  0  0  0
   48.0437  -44.2823    4.6384 O   0  0  0  0  0  0  0  0  0  0  0  0
   47.0725  -46.2954    4.0609 N   0  0  0  0  0  0  0  0  0  0  0  0
   48.0169  -46.4968    2.9971 C   0  0  0  0  0  0  0  0  0  0  0  0
   47.3729  -47.1161    1.7747 C   0  0  0  0  0  0  0  0  0  0  0  0
   49.2004  -47.3050    3.4894 C   0  0  0  0  0  0  0  0  0  0  0  0
   45.0182  -45.4962    6.0616 C   0  0  0  0  0  0  0  0  0  0  0  0
   44.1720  -45.2099    7.1174 C   0  0  0  0  0  0  0  0  0  0  0  0
   42.9542  -45.8299    7.2418 C   0  0  0  0  0  0  0  0  0  0  0  0
   39.8882  -45.7359    9.3782 C   0  0  0  0  0  0  0  0  0  0  0  0
   38.5753  -46.8107    9.1161 S   0  0  0  0  0  0  0  0  0  0  0  0
  1  2  1  0  0  0  0
  2  3  2  0  0  0  0
  3  4  1  0  0  0  0
  4  5  1  0  0  0  0
  4 22  2  0  0  0  0
  5  6  2  0  0  0  0
  6  7  1  0  0  0  0
  7  8  2  0  0  0  0
  8  9  1  0  0  0  0
  9 10  1  0  0  0  0
 10 11  2  0  0  0  0
 10 12  1  0  0  0  0
 12 13  1  0  0  0  0
 12 19  2  0  0  0  0
 13 14  2  0  0  0  0
 13 15  1  0  0  0  0
 15 16  1  0  0  0  0
 16 17  1  0  0  0  0
 16 18  1  0  0  0  0
 19 20  1  0  0  0  0
 20 21  2  0  0  0  0
 20  8  1  0  0  0  0
 21  5  1  0  0  0  0
 22 23  1  0  0  0  0
 23  2  1  0  0  0  0
M  END
>  <CHROM.1>
-170.51005968,-18.69659568,-141.63677858,43.96164550,-45.72404576,6.76019836
2.89455475,0.43293235,0.83123479

>  <Name>
design_4

>  <RI>
0

>  <Rbt.Current_Directory>
/home/ziqiaoxu/icml18-jtnn/VAEdesign

>  <Rbt.Executable>
rbdock ($Id: //depot/dev/client3/rdock/2013.1/src/exe/rbdock.cxx#4 $)

>  <Rbt.Library>
libRbt.so (2013.1, Build901 2013/11/27)

>  <Rbt.Parameter_File>
/export/apps/rDock/src/rDock_2013.1_src//data/scripts/dock.prm

>  <Rbt.Receptor>
/home/ziqiaoxu/icml18-jtnn/VAEdesign/targets/RdRp-SARS-CoV-2/pocket_docking.prm

>  <SCORE>
-18.9916

>  <SCORE.INTER>
-17.2626

>  <SCORE.INTER.CONST>
1

>  <SCORE.INTER.POLAR>
0

>  <SCORE.INTER.REPUL>
0

>  <SCORE.INTER.ROT>
3

>  <SCORE.INTER.VDW>
-25.6626

>  <SCORE.INTER.norm>
-0.750548

>  <SCORE.INTRA>
-1.72896

>  <SCORE.INTRA.DIHEDRAL>
-6.6874

>  <SCORE.INTRA.DIHEDRAL.0>
9.58661

>  <SCORE.INTRA.POLAR>
0

>  <SCORE.INTRA.POLAR.0>
0

>  <SCORE.INTRA.REPUL>
0

>  <SCORE.INTRA.REPUL.0>
0

>  <SCORE.INTRA.VDW>
1.61475

>  <SCORE.INTRA.VDW.0>
-0.925754

>  <SCORE.INTRA.norm>
-0.075172

>  <SCORE.RESTR>
0

>  <SCORE.RESTR.CAVITY>
0

>  <SCORE.RESTR.norm>
0

>  <SCORE.SYSTEM>
0

>  <SCORE.SYSTEM.CONST>
0

>  <SCORE.SYSTEM.DIHEDRAL>
0

>  <SCORE.SYSTEM.norm>
0

>  <SCORE.heavy>
23

>  <SCORE.norm>
-0.82572

$$$$
design_2
 OpenBabel05252019093D

 27 30  0  0  0  0  0  0  0  0999 V2000
   35.5166  -41.6076    5.6281 C   0  0  0  0  0  0  0  0  0  0  0  0
   36.0078  -43.0057    5.6801 C   0  0  0  0  0  0  0  0  0  0  0  0
   35.6812  -43.9761    4.7907 N   0  0  0  0  0  0  0  0  0  0  0  0
   36.3096  -45.1103    5.1259 N   0  0  0  0  0  0  0  0  0  0  0  0
   37.0438  -44.8879    6.2270 C   0  0  0  0  0  0  0  0  0  0  0  0
   37.8934  -45.8738    6.9026 C   0  0  0  0  0  0  0  0  0  0  0  0
   37.8694  -47.2040    6.5485 C   0  0  0  0  0  0  0  0  0  0  0  0
   38.6558  -48.1209    7.2123 C   0  0  0  0  0  0  0  0  0  0  0  0
   39.4875  -47.7499    8.2442 C   0  0  0  0  0  0  0  0  0  0  0  0
   39.5346  -46.4298    8.6217 C   0  0  0  0  0  0  0  0  0  0  0  0
   40.3332  -45.9586    9.7204 N   0  0  0  0  0  0  0  0  0  0  0  0
   40.6300  -44.6292   10.0058 C   0  0  0  0  0  0  0  0  0  0  0  0
   40.1730  -43.7212    9.2303 O   0  0  0  0  0  0  0  0  0  0  0  0
   41.4616  -44.2788   11.1845 C   0  0  0  0  0  0  0  0  0  0  0  0
   42.8527  -44.1876   10.8475 N   0  0  0  0  0  0  0  0  0  0  0  0
   43.4315  -43.9905    9.6664 C   0  0  0  0  0  0  0  0  0  0  0  0
   44.8037  -43.9866    9.7846 C   0  0  0  0  0  0  0  0  0  0  0  0
   45.7343  -43.8029    8.7135 C   0  0  0  0  0  0  0  0  0  0  0  0
   46.4919  -43.6386    7.8592 N   0  0  0  0  0  0  0  0  0  0  0  0
   45.0727  -44.1944   11.1236 C   0  0  0  0  0  0  0  0  0  0  0  0
   46.2769  -44.2852   11.8054 C   0  0  0  0  0  0  0  0  0  0  0  0
   46.2767  -44.5041   13.1666 C   0  0  0  0  0  0  0  0  0  0  0  0
   45.0591  -44.6245   13.8028 C   0  0  0  0  0  0  0  0  0  0  0  0
   43.8711  -44.5322   13.1157 C   0  0  0  0  0  0  0  0  0  0  0  0
   43.8522  -44.3141   11.7508 C   0  0  0  0  0  0  0  0  0  0  0  0
   38.7326  -45.5303    7.9348 C   0  0  0  0  0  0  0  0  0  0  0  0
   36.8414  -43.5999    6.5428 N   0  0  0  0  0  0  0  0  0  0  0  0
  1  2  1  0  0  0  0
  2  3  2  0  0  0  0
  3  4  1  0  0  0  0
  4  5  1  0  0  0  0
  5  6  1  0  0  0  0
  5 27  2  0  0  0  0
  6  7  2  0  0  0  0
  7  8  1  0  0  0  0
  8  9  2  0  0  0  0
  9 10  1  0  0  0  0
 10 11  1  0  0  0  0
 10 26  2  0  0  0  0
 11 12  1  0  0  0  0
 12 13  2  0  0  0  0
 12 14  1  0  0  0  0
 14 15  1  0  0  0  0
 15 16  1  0  0  0  0
 16 17  2  0  0  0  0
 17 18  1  0  0  0  0
 17 20  1  0  0  0  0
 18 19  3  0  0  0  0
 20 21  2  0  0  0  0
 21 22  1  0  0  0  0
 22 23  2  0  0  0  0
 23 24  1  0  0  0  0
 24 25  2  0  0  0  0
 25 15  1  0  0  0  0
 25 20  1  0  0  0  0
 26  6  1  0  0  0  0
 27  2  1  0  0  0  0
M  END
>  <CHROM.1>
-8.91146051,167.13880277,92.19352625,21.31504311,40.88345077,-44.71197773
8.89686560,-2.91532312,0.53721792,2.65178662

>  <Name>
design_2

>  <RI>
0

>  <Rbt.Current_Directory>
/home/ziqiaoxu/icml18-jtnn/VAEdesign

>  <Rbt.Executable>
rbdock ($Id: //depot/dev/client3/rdock/2013.1/src/exe/rbdock.cxx#4 $)

>  <Rbt.Library>
libRbt.so (2013.1, Build901 2013/11/27)

>  <Rbt.Parameter_File>
/export/apps/rDock/src/rDock_2013.1_src//data/scripts/dock.prm

>  <Rbt.Receptor>
/home/ziqiaoxu/icml18-jtnn/VAEdesign/targets/RdRp-SARS-CoV-2/pocket_docking.prm

>  <SCORE>
-19.0935

>  <SCORE.INTER>
-18.9814

>  <SCORE.INTER.CONST>
1

>  <SCORE.INTER.POLAR>
-0.800659

>  <SCORE.INTER.REPUL>
0

>  <SCORE.INTER.ROT>
4

>  <SCORE.INTER.VDW>
-25.6592

>  <SCORE.INTER.norm>
-0.703016

>  <SCORE.INTRA>
-0.112037

>  <SCORE.INTRA.DIHEDRAL>
-3.34065

>  <SCORE.INTRA.DIHEDRAL.0>
8.03557

>  <SCORE.INTRA.POLAR>
0

>  <SCORE.INTRA.POLAR.0>
0

>  <SCORE.INTRA.REPUL>
0.0658526

>  <SCORE.INTRA.REPUL.0>
0

>  <SCORE.INTRA.VDW>
1.22902

>  <SCORE.INTRA.VDW.0>
-1.67375

>  <SCORE.INTRA.norm>
-0.00414951

>  <SCORE.RESTR>
0

>  <SCORE.RESTR.CAVITY>
0

>  <SCORE.RESTR.norm>
0

>  <SCORE.SYSTEM>
0

>  <SCORE.SYSTEM.CONST>
0

>  <SCORE.SYSTEM.DIHEDRAL>
0

>  <SCORE.SYSTEM.norm>
0

>  <SCORE.heavy>
27

>  <SCORE.norm>
-0.707165

$$$$
design_5
 OpenBabel05252019093D

 22 24  0  0  0  0  0  0  0  0999 V2000
   48.0743  -43.4914    6.2776 C   0  0  0  0  0  0  0  0  0  0  0  0
   46.8188  -43.7672    7.0686 C   0  0  0  0  0  0  0  0  0  0  0  0
   46.5485  -43.3539    8.2620 N   0  0  0  0  0  0  0  0  0  0  0  0
   45.3953  -43.6681    8.8598 C   0  0  0  0  0  0  0  0  0  0  0  0
   45.3197  -43.3216   10.3174 C   0  0  0  0  0  0  0  0  0  0  0  0
   45.9050  -42.3284   11.0385 C   0  0  0  0  0  0  0  0  0  0  0  0
   45.5400  -42.1774   12.3189 C   0  0  0  0  0  0  0  0  0  0  0  0
   44.6011  -43.0298   12.8217 C   0  0  0  0  0  0  0  0  0  0  0  0
   44.2611  -44.0188   11.4732 S   0  0  0  0  0  0  0  0  0  0  0  0
   44.5315  -44.4215    8.1650 C   0  0  0  0  0  0  0  0  0  0  0  0
   43.1940  -44.9890    8.3723 C   0  0  0  0  0  0  0  0  0  0  0  0
   42.5114  -44.5200    9.3569 O   0  0  0  0  0  0  0  0  0  0  0  0
   42.5736  -45.9846    7.6426 N   0  0  0  0  0  0  0  0  0  0  0  0
   41.2517  -46.4851    7.9094 C   0  0  0  0  0  0  0  0  0  0  0  0
   40.5928  -46.0004    9.0521 C   0  0  0  0  0  0  0  0  0  0  0  0
   39.3194  -46.4020    9.3635 C   0  0  0  0  0  0  0  0  0  0  0  0
   38.6539  -47.2899    8.5651 C   0  0  0  0  0  0  0  0  0  0  0  0
   39.2740  -47.7765    7.4457 C   0  0  0  0  0  0  0  0  0  0  0  0
   38.6108  -48.7218    6.5643 C   0  0  0  0  0  0  0  0  0  0  0  0
   38.0635  -49.4785    5.8715 N   0  0  0  0  0  0  0  0  0  0  0  0
   40.5791  -47.3636    7.1273 C   0  0  0  0  0  0  0  0  0  0  0  0
   45.4410  -44.6563    6.6676 S   0  0  0  0  0  0  0  0  0  0  0  0
  1  2  1  0  0  0  0
  2  3  2  0  0  0  0
  3  4  1  0  0  0  0
  4  5  1  0  0  0  0
  4 10  2  0  0  0  0
  5  6  2  0  0  0  0
  6  7  1  0  0  0  0
  7  8  2  0  0  0  0
  8  9  1  0  0  0  0
  9  5  1  0  0  0  0
 10 11  1  0  0  0  0
 10 22  1  0  0  0  0
 11 12  2  0  0  0  0
 11 13  1  0  0  0  0
 13 14  1  0  0  0  0
 14 15  2  0  0  0  0
 15 16  1  0  0  0  0
 16 17  2  0  0  0  0
 17 18  1  0  0  0  0
 18 19  1  0  0  0  0
 18 21  2  0  0  0  0
 19 20  3  0  0  0  0
 21 14  1  0  0  0  0
 22  2  1  0  0  0  0
M  END
>  <CHROM.1>
30.18723319,14.51561196,-5.21121291,43.27957962,-45.04503317,8.69629926,-0.46324006
-0.46888813,-1.95198861

>  <Name>
design_5

>  <RI>
0

>  <Rbt.Current_Directory>
/home/ziqiaoxu/icml18-jtnn/VAEdesign

>  <Rbt.Executable>
rbdock ($Id: //depot/dev/client3/rdock/2013.1/src/exe/rbdock.cxx#4 $)

>  <Rbt.Library>
libRbt.so (2013.1, Build901 2013/11/27)

>  <Rbt.Parameter_File>
/export/apps/rDock/src/rDock_2013.1_src//data/scripts/dock.prm

>  <Rbt.Receptor>
/home/ziqiaoxu/icml18-jtnn/VAEdesign/targets/RdRp-SARS-CoV-2/pocket_docking.prm

>  <SCORE>
-16.6536

>  <SCORE.INTER>
-17.2568

>  <SCORE.INTER.CONST>
1

>  <SCORE.INTER.POLAR>
0

>  <SCORE.INTER.REPUL>
0

>  <SCORE.INTER.ROT>
3

>  <SCORE.INTER.VDW>
-25.6568

>  <SCORE.INTER.norm>
-0.784402

>  <SCORE.INTRA>
0.603241

>  <SCORE.INTRA.DIHEDRAL>
-5.68477

>  <SCORE.INTRA.DIHEDRAL.0>
8.22561

>  <SCORE.INTRA.POLAR>
0

>  <SCORE.INTRA.POLAR.0>
0

>  <SCORE.INTRA.REPUL>
0

>  <SCORE.INTRA.REPUL.0>
0

>  <SCORE.INTRA.VDW>
3.44563

>  <SCORE.INTRA.VDW.0>
-2.02205

>  <SCORE.INTRA.norm>
0.0274201

>  <SCORE.RESTR>
0

>  <SCORE.RESTR.CAVITY>
0

>  <SCORE.RESTR.norm>
0

>  <SCORE.SYSTEM>
0

>  <SCORE.SYSTEM.CONST>
0

>  <SCORE.SYSTEM.DIHEDRAL>
0

>  <SCORE.SYSTEM.norm>
0

>  <SCORE.heavy>
22

>  <SCORE.norm>
-0.756982

$$$$
design_10
 OpenBabel05252019093D

 26 28  0  0  0  0  0  0  0  0999 V2000
   40.0700  -46.3005   10.4437 N   0  0  0  0  0  0  0  0  0  0  0  0
   40.9232  -45.8994    9.3456 C   0  0  0  0  0  0  0  0  0  0  0  0
   41.8826  -45.2070    9.6586 O   0  0  0  0  0  0  0  0  0  0  0  0
   40.5996  -46.3247    8.0070 C   0  0  0  0  0  0  0  0  0  0  0  0
   39.3106  -46.8551    7.8022 C   0  0  0  0  0  0  0  0  0  0  0  0
   38.8832  -47.3539    6.6079 C   0  0  0  0  0  0  0  0  0  0  0  0
   39.7669  -47.3290    5.5655 C   0  0  0  0  0  0  0  0  0  0  0  0
   41.0373  -46.8122    5.7410 C   0  0  0  0  0  0  0  0  0  0  0  0
   41.5010  -46.2957    6.9484 C   0  0  0  0  0  0  0  0  0  0  0  0
   42.7744  -45.6978    7.0630 N   0  0  0  0  0  0  0  0  0  0  0  0
   43.6176  -45.2955    5.9982 C   0  0  0  0  0  0  0  0  0  0  0  0
   43.3420  -45.4274    4.8106 O   0  0  0  0  0  0  0  0  0  0  0  0
   44.9146  -44.6761    6.4035 C   0  0  0  0  0  0  0  0  0  0  0  0
   45.1264  -44.2422    7.6942 C   0  0  0  0  0  0  0  0  0  0  0  0
   46.3582  -43.6795    8.0008 C   0  0  0  0  0  0  0  0  0  0  0  0
   47.3360  -43.5582    7.0489 C   0  0  0  0  0  0  0  0  0  0  0  0
   47.0879  -44.0016    5.7749 C   0  0  0  0  0  0  0  0  0  0  0  0
   45.8643  -44.5728    5.4253 C   0  0  0  0  0  0  0  0  0  0  0  0
   45.5987  -45.0333    4.0987 C   0  0  0  0  0  0  0  0  0  0  0  0
   45.3518  -45.4431    2.9679 C   0  0  0  0  0  0  0  0  0  0  0  0
   45.0638  -45.8969    1.6386 C   0  0  0  0  0  0  0  0  0  0  0  0
   46.0418  -46.3767    0.7910 C   0  0  0  0  0  0  0  0  0  0  0  0
   45.7608  -46.8133   -0.4887 C   0  0  0  0  0  0  0  0  0  0  0  0
   44.4598  -46.7727   -0.9452 C   0  0  0  0  0  0  0  0  0  0  0  0
   43.4687  -46.3040   -0.1324 C   0  0  0  0  0  0  0  0  0  0  0  0
   43.7817  -45.8688    1.1567 C   0  0  0  0  0  0  0  0  0  0  0  0
  1  2  1  0  0  0  0
  2  3  2  0  0  0  0
  2  4  1  0  0  0  0
  4  5  2  0  0  0  0
  5  6  1  0  0  0  0
  6  7  2  0  0  0  0
  7  8  1  0  0  0  0
  8  9  2  0  0  0  0
  9 10  1  0  0  0  0
  9  4  1  0  0  0  0
 10 11  1  0  0  0  0
 11 12  2  0  0  0  0
 11 13  1  0  0  0  0
 13 14  2  0  0  0  0
 14 15  1  0  0  0  0
 15 16  2  0  0  0  0
 16 17  1  0  0  0  0
 17 18  2  0  0  0  0
 18 19  1  0  0  0  0
 18 13  1  0  0  0  0
 19 20  3  0  0  0  0
 20 21  1  0  0  0  0
 21 22  2  0  0  0  0
 22 23  1  0  0  0  0
 23 24  2  0  0  0  0
 24 25  1  0  0  0  0
 25 26  2  0  0  0  0
 26 21  1  0  0  0  0
M  END
>  <CHROM.1>
13.86306014,-162.07013534,-14.74935691,-19.81365758,98.22863345,43.40232636
-45.69823267,5.37121837,2.14726034,0.40530689,1.33438407

>  <Name>
design_10

>  <RI>
0

>  <Rbt.Current_Directory>
/home/ziqiaoxu/icml18-jtnn/VAEdesign

>  <Rbt.Executable>
rbdock ($Id: //depot/dev/client3/rdock/2013.1/src/exe/rbdock.cxx#4 $)

>  <Rbt.Library>
libRbt.so (2013.1, Build901 2013/11/27)

>  <Rbt.Parameter_File>
/export/apps/rDock/src/rDock_2013.1_src//data/scripts/dock.prm

>  <Rbt.Receptor>
/home/ziqiaoxu/icml18-jtnn/VAEdesign/targets/RdRp-SARS-CoV-2/pocket_docking.prm

>  <SCORE>
-22.0894

>  <SCORE.INTER>
-22.753

>  <SCORE.INTER.CONST>
1

>  <SCORE.INTER.POLAR>
-2.27397

>  <SCORE.INTER.REPUL>
0.0469571

>  <SCORE.INTER.ROT>
5

>  <SCORE.INTER.VDW>
-25.6563

>  <SCORE.INTER.norm>
-0.875116

>  <SCORE.INTRA>
0.663585

>  <SCORE.INTRA.DIHEDRAL>
-4.90249

>  <SCORE.INTRA.DIHEDRAL.0>
7.47225

>  <SCORE.INTRA.POLAR>
0

>  <SCORE.INTRA.POLAR.0>
0

>  <SCORE.INTRA.REPUL>
0

>  <SCORE.INTRA.REPUL.0>
0

>  <SCORE.INTRA.VDW>
3.11483

>  <SCORE.INTRA.VDW.0>
-1.80492

>  <SCORE.INTRA.norm>
0.0255225

>  <SCORE.RESTR>
0

>  <SCORE.RESTR.CAVITY>
0

>  <SCORE.RESTR.norm>
0

>  <SCORE.SYSTEM>
0

>  <SCORE.SYSTEM.CONST>
0

>  <SCORE.SYSTEM.DIHEDRAL>
0

>  <SCORE.SYSTEM.norm>
0

>  <SCORE.heavy>
26

>  <SCORE.norm>
-0.849593

$$$$
design_15
 OpenBabel05252019093D

 25 26  0  0  0  0  0  0  0  0999 V2000
   40.0671  -46.3029   10.4668 N   0  0  0  0  0  0  0  0  0  0  0  0
   40.6165  -46.1119    9.1394 C   0  0  0  0  0  0  0  0  0  0  0  0
   41.4397  -45.1893    9.0632 O   0  0  0  0  0  0  0  0  0  0  0  0
   40.2087  -46.9461    8.0439 C   0  0  0  0  0  0  0  0  0  0  0  0
   39.0552  -47.7397    8.2228 C   0  0  0  0  0  0  0  0  0  0  0  0
   38.5708  -48.5137    7.1930 C   0  0  0  0  0  0  0  0  0  0  0  0
   39.1911  -48.5371    5.9698 C   0  0  0  0  0  0  0  0  0  0  0  0
   40.3247  -47.7614    5.7895 C   0  0  0  0  0  0  0  0  0  0  0  0
   40.8246  -46.9730    6.8269 C   0  0  0  0  0  0  0  0  0  0  0  0
   42.0376  -46.2939    6.6196 N   0  0  0  0  0  0  0  0  0  0  0  0
   42.6430  -46.0839    5.3810 C   0  0  0  0  0  0  0  0  0  0  0  0
   42.1637  -46.4745    4.2545 O   0  0  0  0  0  0  0  0  0  0  0  0
   43.9308  -45.3707    5.2497 C   0  0  0  0  0  0  0  0  0  0  0  0
   44.7185  -45.3921    6.4330 N   0  0  0  0  0  0  0  0  0  0  0  0
   44.8076  -44.1457    7.1879 C   0  0  0  0  0  0  0  0  0  0  0  0
   44.2041  -43.1140    6.7866 O   0  0  0  0  0  0  0  0  0  0  0  0
   45.5885  -44.1532    8.3670 N   0  0  0  0  0  0  0  0  0  0  0  0
   45.7040  -42.9585    9.1622 C   0  0  0  0  0  0  0  0  0  0  0  0
   45.2264  -43.0955   10.5581 C   0  0  0  0  0  0  0  0  0  0  0  0
   44.4273  -44.1009   11.0285 C   0  0  0  0  0  0  0  0  0  0  0  0
   44.0599  -44.1529   12.3443 C   0  0  0  0  0  0  0  0  0  0  0  0
   44.5100  -43.1606   13.2254 C   0  0  0  0  0  0  0  0  0  0  0  0
   45.3150  -42.1409   12.7743 C   0  0  0  0  0  0  0  0  0  0  0  0
   45.6601  -42.1195   11.4622 C   0  0  0  0  0  0  0  0  0  0  0  0
   46.4617  -41.1071   11.0018 F   0  0  0  0  0  0  0  0  0  0  0  0
  1  2  1  0  0  0  0
  2  3  2  0  0  0  0
  2  4  1  0  0  0  0
  4  5  2  0  0  0  0
  5  6  1  0  0  0  0
  6  7  2  0  0  0  0
  7  8  1  0  0  0  0
  8  9  2  0  0  0  0
  9 10  1  0  0  0  0
  9  4  1  0  0  0  0
 10 11  1  0  0  0  0
 11 12  2  0  0  0  0
 11 13  1  0  0  0  0
 13 14  1  0  0  0  0
 14 15  1  0  0  0  0
 15 16  2  0  0  0  0
 15 17  1  0  0  0  0
 17 18  1  0  0  0  0
 18 19  1  0  0  0  0
 19 20  2  0  0  0  0
 20 21  1  0  0  0  0
 21 22  2  0  0  0  0
 22 23  1  0  0  0  0
 23 24  2  0  0  0  0
 24 25  1  0  0  0  0
 24 19  1  0  0  0  0
M  END
>  <CHROM.1>
14.07902322,-169.61495134,23.22647423,-106.93439475,120.47297567,-16.54221855
42.93806083,-45.05599036,8.49443387,2.40044076,-0.59750672,-1.82370931

>  <Name>
design_15

>  <RI>
0

>  <Rbt.Current_Directory>
/home/ziqiaoxu/icml18-jtnn/VAEdesign

>  <Rbt.Executable>
rbdock ($Id: //depot/dev/client3/rdock/2013.1/src/exe/rbdock.cxx#4 $)

>  <Rbt.Library>
libRbt.so (2013.1, Build901 2013/11/27)

>  <Rbt.Parameter_File>
/export/apps/rDock/src/rDock_2013.1_src//data/scripts/dock.prm

>  <Rbt.Receptor>
/home/ziqiaoxu/icml18-jtnn/VAEdesign/targets/RdRp-SARS-CoV-2/pocket_docking.prm

>  <SCORE>
-29.2056

>  <SCORE.INTER>
-27.5575

>  <SCORE.INTER.CONST>
1

>  <SCORE.INTER.POLAR>
-3.93941

>  <SCORE.INTER.REPUL>
0.0184119

>  <SCORE.INTER.ROT>
6

>  <SCORE.INTER.VDW>
-25.6555

>  <SCORE.INTER.norm>
-1.1023

>  <SCORE.INTRA>
-1.64814

>  <SCORE.INTRA.DIHEDRAL>
-0.684039

>  <SCORE.INTRA.DIHEDRAL.0>
6.53664

>  <SCORE.INTRA.POLAR>
0

>  <SCORE.INTRA.POLAR.0>
0

>  <SCORE.INTRA.REPUL>
0

>  <SCORE.INTRA.REPUL.0>
0

>  <SCORE.INTRA.VDW>
-1.30612

>  <SCORE.INTRA.VDW.0>
-0.663078

>  <SCORE.INTRA.norm>
-0.0659257

>  <SCORE.RESTR>
0

>  <SCORE.RESTR.CAVITY>
0

>  <SCORE.RESTR.norm>
0

>  <SCORE.SYSTEM>
0

>  <SCORE.SYSTEM.CONST>
0

>  <SCORE.SYSTEM.DIHEDRAL>
0

>  <SCORE.SYSTEM.norm>
0

>  <SCORE.heavy>
25

>  <SCORE.norm>
-1.16823

$$$$
design_4
 OpenBabel05252019093D

 25 27  0  0  0  0  0  0  0  0999 V2000
   39.6004  -45.4416    9.5623 C   0  0  0  0  0  0  0  0  0  0  0  0
   40.8912  -45.4311    8.8466 C   0  0  0  0  0  0  0  0  0  0  0  0
   41.8026  -44.4310    9.0660 C   0  0  0  0  0  0  0  0  0  0  0  0
   43.0341  -44.4208    8.3836 C   0  0  0  0  0  0  0  0  0  0  0  0
   43.3484  -45.4114    7.4843 C   0  0  0  0  0  0  0  0  0  0  0  0
   44.5193  -45.5224    6.7212 N   0  0  0  0  0  0  0  0  0  0  0  0
   45.1125  -44.4314    6.0390 C   0  0  0  0  0  0  0  0  0  0  0  0
   44.7161  -43.2661    6.0018 O   0  0  0  0  0  0  0  0  0  0  0  0
   46.3760  -44.7661    5.2779 C   0  0  0  0  0  0  0  0  0  0  0  0
   46.0410  -45.8178    4.2676 C   0  0  0  0  0  0  0  0  0  0  0  0
   44.9590  -45.4508    3.3481 C   0  0  0  0  0  0  0  0  0  0  0  0
   43.9216  -44.8140    3.6232 O   0  0  0  0  0  0  0  0  0  0  0  0
   45.1008  -45.8754    1.9409 C   0  0  0  0  0  0  0  0  0  0  0  0
   44.0484  -45.7730    1.0350 C   0  0  0  0  0  0  0  0  0  0  0  0
   44.1466  -46.1569   -0.2753 C   0  0  0  0  0  0  0  0  0  0  0  0
   45.3279  -46.6713   -0.7479 C   0  0  0  0  0  0  0  0  0  0  0  0
   46.3906  -46.7855    0.1265 C   0  0  0  0  0  0  0  0  0  0  0  0
   46.2767  -46.3946    1.4438 C   0  0  0  0  0  0  0  0  0  0  0  0
   42.3932  -46.4019    7.2969 C   0  0  0  0  0  0  0  0  0  0  0  0
   41.1824  -46.4509    7.9396 C   0  0  0  0  0  0  0  0  0  0  0  0
   40.2507  -47.4921    7.7011 N   0  0  0  0  0  0  0  0  0  0  0  0
   40.1500  -48.2317    6.5959 C   0  0  0  0  0  0  0  0  0  0  0  0
   39.1350  -49.1290    6.7456 N   0  0  0  0  0  0  0  0  0  0  0  0
   38.6391  -48.9037    7.9613 N   0  0  0  0  0  0  0  0  0  0  0  0
   39.3274  -47.9025    8.5359 N   0  0  0  0  0  0  0  0  0  0  0  0
  1  2  1  0  0  0  0
  2  3  2  0  0  0  0
  3  4  1  0  0  0  0
  4  5  2  0  0  0  0
  5  6  1  0  0  0  0
  5 19  1  0  0  0  0
  6  7  1  0  0  0  0
  7  8  2  0  0  0  0
  7  9  1  0  0  0  0
  9 10  1  0  0  0  0
 10 11  1  0  0  0  0
 11 12  2  0  0  0  0
 11 13  1  0  0  0  0
 13 14  2  0  0  0  0
 14 15  1  0  0  0  0
 15 16  2  0  0  0  0
 16 17  1  0  0  0  0
 17 18  2  0  0  0  0
 18 13  1  0  0  0  0
 19 20  2  0  0  0  0
 20 21  1  0  0  0  0
 20  2  1  0  0  0  0
 21 22  1  0  0  0  0
 22 23  2  0  0  0  0
 23 24  1  0  0  0  0
 24 25  2  0  0  0  0
 25 21  1  0  0  0  0
M  END
>  <CHROM.1>
-44.18354156,59.34317607,56.10246366,-38.34814900,169.49491759,154.68166986
43.04745886,-46.04748283,5.43331495,-2.40424709,-0.62425900,-2.00397399

>  <Name>
design_4

>  <RI>
0

>  <Rbt.Current_Directory>
/home/ziqiaoxu/icml18-jtnn/VAEdesign

>  <Rbt.Executable>
rbdock ($Id: //depot/dev/client3/rdock/2013.1/src/exe/rbdock.cxx#4 $)

>  <Rbt.Library>
libRbt.so (2013.1, Build901 2013/11/27)

>  <Rbt.Parameter_File>
/export/apps/rDock/src/rDock_2013.1_src//data/scripts/dock.prm

>  <Rbt.Receptor>
/home/ziqiaoxu/icml18-jtnn/VAEdesign/targets/RdRp-SARS-CoV-2/pocket_docking.prm

>  <SCORE>
-18.8942

>  <SCORE.INTER>
-16.8112

>  <SCORE.INTER.CONST>
1

>  <SCORE.INTER.POLAR>
-0.894427

>  <SCORE.INTER.REPUL>
0.0967604

>  <SCORE.INTER.ROT>
6

>  <SCORE.INTER.VDW>
-25.654

>  <SCORE.INTER.norm>
-0.67245

>  <SCORE.INTRA>
-2.08296

>  <SCORE.INTRA.DIHEDRAL>
-3.20519

>  <SCORE.INTRA.DIHEDRAL.0>
15.7565

>  <SCORE.INTRA.POLAR>
0

>  <SCORE.INTRA.POLAR.0>
0

>  <SCORE.INTRA.REPUL>
0

>  <SCORE.INTRA.REPUL.0>
0

>  <SCORE.INTRA.VDW>
-0.480363

>  <SCORE.INTRA.VDW.0>
2.09224

>  <SCORE.INTRA.norm>
-0.0833184

>  <SCORE.RESTR>
0

>  <SCORE.RESTR.CAVITY>
0

>  <SCORE.RESTR.norm>
0

>  <SCORE.SYSTEM>
0

>  <SCORE.SYSTEM.CONST>
0

>  <SCORE.SYSTEM.DIHEDRAL>
0

>  <SCORE.SYSTEM.norm>
0

>  <SCORE.heavy>
25

>  <SCORE.norm>
-0.755768

$$$$
design_11
 OpenBabel05252019093D

 26 28  0  0  0  0  0  0  0  0999 V2000
   39.7372  -46.3659   10.2570 N   0  0  0  0  0  0  0  0  0  0  0  0
   39.9196  -46.0479    8.8479 C   0  0  0  0  0  0  0  0  0  0  0  0
   40.2753  -44.8798    8.6047 O   0  0  0  0  0  0  0  0  0  0  0  0
   39.6665  -47.1210    7.9065 C   0  0  0  0  0  0  0  0  0  0  0  0
   38.6875  -48.0642    8.2603 C   0  0  0  0  0  0  0  0  0  0  0  0
   38.4004  -49.1492    7.4782 C   0  0  0  0  0  0  0  0  0  0  0  0
   39.1028  -49.2974    6.3196 C   0  0  0  0  0  0  0  0  0  0  0  0
   40.0787  -48.3593    5.9617 C   0  0  0  0  0  0  0  0  0  0  0  0
   40.3847  -47.2525    6.7403 C   0  0  0  0  0  0  0  0  0  0  0  0
   41.3044  -46.2783    6.3395 N   0  0  0  0  0  0  0  0  0  0  0  0
   42.3229  -45.7509    7.1829 C   0  0  0  0  0  0  0  0  0  0  0  0
   42.5547  -46.0444    8.3674 O   0  0  0  0  0  0  0  0  0  0  0  0
   43.2673  -44.6987    6.6141 C   0  0  0  0  0  0  0  0  0  0  0  0
   44.5945  -45.3365    6.4050 C   0  0  0  0  0  0  0  0  0  0  0  0
   45.4091  -44.7995    5.2814 C   0  0  0  0  0  0  0  0  0  0  0  0
   44.9126  -45.1225    3.9618 N   0  0  0  0  0  0  0  0  0  0  0  0
   43.6291  -44.9237    3.6804 N   0  0  0  0  0  0  0  0  0  0  0  0
   43.1087  -45.1921    2.4975 N   0  0  0  0  0  0  0  0  0  0  0  0
   43.8450  -45.6875    1.4915 C   0  0  0  0  0  0  0  0  0  0  0  0
   43.3150  -45.9734    0.2483 C   0  0  0  0  0  0  0  0  0  0  0  0
   44.1054  -46.4821   -0.7611 C   0  0  0  0  0  0  0  0  0  0  0  0
   45.4539  -46.7199   -0.5534 C   0  0  0  0  0  0  0  0  0  0  0  0
   45.9529  -46.4207    0.7088 C   0  0  0  0  0  0  0  0  0  0  0  0
   45.1829  -45.9152    1.7225 C   0  0  0  0  0  0  0  0  0  0  0  0
   45.6840  -45.6179    2.9805 C   0  0  0  0  0  0  0  0  0  0  0  0
   46.8945  -45.8305    3.1716 O   0  0  0  0  0  0  0  0  0  0  0  0
  1  2  1  0  0  0  0
  2  3  2  0  0  0  0
  2  4  1  0  0  0  0
  4  5  2  0  0  0  0
  5  6  1  0  0  0  0
  6  7  2  0  0  0  0
  7  8  1  0  0  0  0
  8  9  2  0  0  0  0
  9 10  1  0  0  0  0
  9  4  1  0  0  0  0
 10 11  1  0  0  0  0
 11 12  2  0  0  0  0
 11 13  1  0  0  0  0
 13 14  1  0  0  0  0
 14 15  1  0  0  0  0
 15 16  1  0  0  0  0
 16 17  1  0  0  0  0
 17 18  2  0  0  0  0
 18 19  1  0  0  0  0
 19 20  2  0  0  0  0
 20 21  1  0  0  0  0
 21 22  2  0  0  0  0
 22 23  1  0  0  0  0
 23 24  2  0  0  0  0
 24 25  1  0  0  0  0
 24 19  1  0  0  0  0
 25 26  2  0  0  0  0
 25 16  1  0  0  0  0
M  END
>  <CHROM.1>
31.46898703,50.10708801,-107.29985623,149.27620628,-70.85810520,48.72575261
42.62129166,-46.24451447,5.07604415,-2.34979159,-0.54562110,-1.87776921

>  <Name>
design_11

>  <RI>
0

>  <Rbt.Current_Directory>
/home/ziqiaoxu/icml18-jtnn/VAEdesign

>  <Rbt.Executable>
rbdock ($Id: //depot/dev/client3/rdock/2013.1/src/exe/rbdock.cxx#4 $)

>  <Rbt.Library>
libRbt.so (2013.1, Build901 2013/11/27)

>  <Rbt.Parameter_File>
/export/apps/rDock/src/rDock_2013.1_src//data/scripts/dock.prm

>  <Rbt.Receptor>
/home/ziqiaoxu/icml18-jtnn/VAEdesign/targets/RdRp-SARS-CoV-2/pocket_docking.prm

>  <SCORE>
-17.6738

>  <SCORE.INTER>
-21.9979

>  <SCORE.INTER.CONST>
1

>  <SCORE.INTER.POLAR>
-2.27767

>  <SCORE.INTER.REPUL>
0

>  <SCORE.INTER.ROT>
6

>  <SCORE.INTER.VDW>
-25.6538

>  <SCORE.INTER.norm>
-0.846071

>  <SCORE.INTRA>
4.32403

>  <SCORE.INTRA.DIHEDRAL>
14.1474

>  <SCORE.INTRA.DIHEDRAL.0>
4.65602

>  <SCORE.INTRA.POLAR>
0

>  <SCORE.INTRA.POLAR.0>
0

>  <SCORE.INTRA.REPUL>
0

>  <SCORE.INTRA.REPUL.0>
0

>  <SCORE.INTRA.VDW>
-2.74967

>  <SCORE.INTRA.VDW.0>
1.78186

>  <SCORE.INTRA.norm>
0.166309

>  <SCORE.RESTR>
0

>  <SCORE.RESTR.CAVITY>
0

>  <SCORE.RESTR.norm>
0

>  <SCORE.SYSTEM>
0

>  <SCORE.SYSTEM.CONST>
0

>  <SCORE.SYSTEM.DIHEDRAL>
0

>  <SCORE.SYSTEM.norm>
0

>  <SCORE.heavy>
26

>  <SCORE.norm>
-0.679763

$$$$
design_3
 OpenBabel05252019093D

 25 27  0  0  0  0  0  0  0  0999 V2000
   42.4688  -41.8127    2.2754 O   0  0  0  0  0  0  0  0  0  0  0  0
   42.9861  -42.0650    1.1557 C   0  0  0  0  0  0  0  0  0  0  0  0
   42.9501  -43.3949    0.6578 N   0  0  0  0  0  0  0  0  0  0  0  0
   42.3227  -44.4344    1.4316 C   0  0  0  0  0  0  0  0  0  0  0  0
   43.3521  -45.4068    1.9586 C   0  0  0  0  0  0  0  0  0  0  0  0
   43.4306  -45.4062    3.4480 C   0  0  0  0  0  0  0  0  0  0  0  0
   42.3047  -46.0166    4.0814 N   0  0  0  0  0  0  0  0  0  0  0  0
   42.1432  -46.1064    5.4749 C   0  0  0  0  0  0  0  0  0  0  0  0
   43.0332  -45.5985    6.2162 O   0  0  0  0  0  0  0  0  0  0  0  0
   41.0338  -46.7277    6.1868 C   0  0  0  0  0  0  0  0  0  0  0  0
   40.2811  -47.7173    5.5271 C   0  0  0  0  0  0  0  0  0  0  0  0
   39.2997  -48.4037    6.1922 C   0  0  0  0  0  0  0  0  0  0  0  0
   39.0501  -48.1210    7.5165 C   0  0  0  0  0  0  0  0  0  0  0  0
   39.7905  -47.1458    8.1600 C   0  0  0  0  0  0  0  0  0  0  0  0
   39.5353  -46.8255    9.4833 C   0  0  0  0  0  0  0  0  0  0  0  0
   40.2120  -45.8467   10.1773 C   0  0  0  0  0  0  0  0  0  0  0  0
   41.1971  -45.1464    9.5215 C   0  0  0  0  0  0  0  0  0  0  0  0
   41.4738  -45.4414    8.2100 C   0  0  0  0  0  0  0  0  0  0  0  0
   40.8045  -46.4166    7.5170 C   0  0  0  0  0  0  0  0  0  0  0  0
   43.6137  -41.0269    0.3674 C   0  0  0  0  0  0  0  0  0  0  0  0
   43.3366  -39.7003    0.5690 C   0  0  0  0  0  0  0  0  0  0  0  0
   43.9556  -38.7443   -0.1757 C   0  0  0  0  0  0  0  0  0  0  0  0
   44.8553  -39.1075   -1.1258 N   0  0  0  0  0  0  0  0  0  0  0  0
   45.1432  -40.3861   -1.3425 C   0  0  0  0  0  0  0  0  0  0  0  0
   44.5421  -41.3714   -0.6160 C   0  0  0  0  0  0  0  0  0  0  0  0
  1  2  2  0  0  0  0
  2  3  1  0  0  0  0
  2 20  1  0  0  0  0
  3  4  1  0  0  0  0
  4  5  1  0  0  0  0
  5  6  1  0  0  0  0
  6  7  1  0  0  0  0
  7  8  1  0  0  0  0
  8  9  2  0  0  0  0
  8 10  1  0  0  0  0
 10 11  2  0  0  0  0
 11 12  1  0  0  0  0
 12 13  2  0  0  0  0
 13 14  1  0  0  0  0
 14 15  2  0  0  0  0
 15 16  1  0  0  0  0
 16 17  2  0  0  0  0
 17 18  1  0  0  0  0
 18 19  2  0  0  0  0
 19 10  1  0  0  0  0
 19 14  1  0  0  0  0
 20 21  2  0  0  0  0
 21 22  1  0  0  0  0
 22 23  2  0  0  0  0
 23 24  1  0  0  0  0
 24 25  2  0  0  0  0
 25 20  1  0  0  0  0
M  END
>  <CHROM.1>
-110.65948614,115.90520112,72.00975599,-178.54938550,23.60535237,-20.27124858
42.16439171,-44.31058154,4.04665570,-0.13861376,1.22211175,0.79534969

>  <Name>
design_3

>  <RI>
0

>  <Rbt.Current_Directory>
/home/ziqiaoxu/icml18-jtnn/VAEdesign

>  <Rbt.Executable>
rbdock ($Id: //depot/dev/client3/rdock/2013.1/src/exe/rbdock.cxx#4 $)

>  <Rbt.Library>
libRbt.so (2013.1, Build901 2013/11/27)

>  <Rbt.Parameter_File>
/export/apps/rDock/src/rDock_2013.1_src//data/scripts/dock.prm

>  <Rbt.Receptor>
/home/ziqiaoxu/icml18-jtnn/VAEdesign/targets/RdRp-SARS-CoV-2/pocket_docking.prm

>  <SCORE>
-19.4735

>  <SCORE.INTER>
-21.218

>  <SCORE.INTER.CONST>
1

>  <SCORE.INTER.POLAR>
-2.04889

>  <SCORE.INTER.REPUL>
0

>  <SCORE.INTER.ROT>
6

>  <SCORE.INTER.VDW>
-25.6517

>  <SCORE.INTER.norm>
-0.848719

>  <SCORE.INTRA>
1.7445

>  <SCORE.INTRA.DIHEDRAL>
0.0242168

>  <SCORE.INTRA.DIHEDRAL.0>
11.6213

>  <SCORE.INTRA.POLAR>
0

>  <SCORE.INTRA.POLAR.0>
0

>  <SCORE.INTRA.REPUL>
0

>  <SCORE.INTRA.REPUL.0>
0

>  <SCORE.INTRA.VDW>
1.73239

>  <SCORE.INTRA.VDW.0>
-1.27165

>  <SCORE.INTRA.norm>
0.0697799

>  <SCORE.RESTR>
0

>  <SCORE.RESTR.CAVITY>
0

>  <SCORE.RESTR.norm>
0

>  <SCORE.SYSTEM>
0

>  <SCORE.SYSTEM.CONST>
0

>  <SCORE.SYSTEM.DIHEDRAL>
0

>  <SCORE.SYSTEM.norm>
0

>  <SCORE.heavy>
25

>  <SCORE.norm>
-0.778939

$$$$
design_2
 OpenBabel05252019093D

 22 23  0  0  0  0  0  0  0  0999 V2000
   41.5115  -44.4063   10.5497 C   0  0  0  0  0  0  0  0  0  0  0  0
   40.9858  -45.3205    9.5023 C   0  0  0  0  0  0  0  0  0  0  0  0
   41.7655  -45.6782    8.4410 C   0  0  0  0  0  0  0  0  0  0  0  0
   41.2245  -46.5277    7.5023 C   0  0  0  0  0  0  0  0  0  0  0  0
   39.9419  -47.0222    7.5959 C   0  0  0  0  0  0  0  0  0  0  0  0
   39.3674  -48.0910    6.3484 S   0  0  0  0  0  0  0  0  0  0  0  0
   40.3367  -48.0574    5.2071 O   0  0  0  0  0  0  0  0  0  0  0  0
   39.3572  -49.5262    6.8266 O   0  0  0  0  0  0  0  0  0  0  0  0
   37.8161  -47.6257    5.8190 N   0  0  0  0  0  0  0  0  0  0  0  0
   37.4600  -46.2602    5.7707 C   0  0  0  0  0  0  0  0  0  0  0  0
   38.4773  -45.3383    5.8462 C   0  0  0  0  0  0  0  0  0  0  0  0
   38.2144  -43.9596    5.7998 C   0  0  0  0  0  0  0  0  0  0  0  0
   36.9403  -43.4733    5.6780 C   0  0  0  0  0  0  0  0  0  0  0  0
   36.5947  -42.1576    5.6251 O   0  0  0  0  0  0  0  0  0  0  0  0
   35.2911  -41.6875    5.6209 C   0  0  0  0  0  0  0  0  0  0  0  0
   34.6357  -41.9653    6.8246 F   0  0  0  0  0  0  0  0  0  0  0  0
   35.3170  -40.2945    5.4268 F   0  0  0  0  0  0  0  0  0  0  0  0
   35.9321  -44.4414    5.6041 C   0  0  0  0  0  0  0  0  0  0  0  0
   36.1800  -45.7972    5.6488 C   0  0  0  0  0  0  0  0  0  0  0  0
   39.1506  -46.6682    8.6590 C   0  0  0  0  0  0  0  0  0  0  0  0
   37.7794  -47.1644    8.8055 C   0  0  0  0  0  0  0  0  0  0  0  0
   39.7020  -45.8113    9.6021 C   0  0  0  0  0  0  0  0  0  0  0  0
  1  2  1  0  0  0  0
  2  3  2  0  0  0  0
  3  4  1  0  0  0  0
  4  5  2  0  0  0  0
  5  6  1  0  0  0  0
  5 20  1  0  0  0  0
  6  7  2  0  0  0  0
  6  8  2  0  0  0  0
  6  9  1  0  0  0  0
  9 10  1  0  0  0  0
 10 11  2  0  0  0  0
 11 12  1  0  0  0  0
 12 13  2  0  0  0  0
 13 14  1  0  0  0  0
 13 18  1  0  0  0  0
 14 15  1  0  0  0  0
 15 16  1  0  0  0  0
 15 17  1  0  0  0  0
 18 19  2  0  0  0  0
 19 10  1  0  0  0  0
 20 21  1  0  0  0  0
 20 22  2  0  0  0  0
 22  2  1  0  0  0  0
M  END
>  <CHROM.1>
-11.60158919,34.46094238,15.31241466,-173.99007594,65.55134568,38.31065709
-45.38740134,6.86629136,-0.58867799,-0.71857163,0.44665241

>  <Name>
design_2

>  <RI>
0

>  <Rbt.Current_Directory>
/home/ziqiaoxu/icml18-jtnn/VAEdesign

>  <Rbt.Executable>
rbdock ($Id: //depot/dev/client3/rdock/2013.1/src/exe/rbdock.cxx#4 $)

>  <Rbt.Library>
libRbt.so (2013.1, Build901 2013/11/27)

>  <Rbt.Parameter_File>
/export/apps/rDock/src/rDock_2013.1_src//data/scripts/dock.prm

>  <Rbt.Receptor>
/home/ziqiaoxu/icml18-jtnn/VAEdesign/targets/RdRp-SARS-CoV-2/pocket_docking.prm

>  <SCORE>
-20.2804

>  <SCORE.INTER>
-15.2505

>  <SCORE.INTER.CONST>
1

>  <SCORE.INTER.POLAR>
0

>  <SCORE.INTER.REPUL>
0

>  <SCORE.INTER.ROT>
5

>  <SCORE.INTER.VDW>
-25.6505

>  <SCORE.INTER.norm>
-0.693206

>  <SCORE.INTRA>
-5.02984

>  <SCORE.INTRA.DIHEDRAL>
-12.8831

>  <SCORE.INTRA.DIHEDRAL.0>
16.3612

>  <SCORE.INTRA.POLAR>
0

>  <SCORE.INTRA.POLAR.0>
0

>  <SCORE.INTRA.REPUL>
0

>  <SCORE.INTRA.REPUL.0>
0

>  <SCORE.INTRA.VDW>
1.41171

>  <SCORE.INTRA.VDW.0>
-2.68997

>  <SCORE.INTRA.norm>
-0.228629

>  <SCORE.RESTR>
0

>  <SCORE.RESTR.CAVITY>
0

>  <SCORE.RESTR.norm>
0

>  <SCORE.SYSTEM>
0

>  <SCORE.SYSTEM.CONST>
0

>  <SCORE.SYSTEM.DIHEDRAL>
0

>  <SCORE.SYSTEM.norm>
0

>  <SCORE.heavy>
22

>  <SCORE.norm>
-0.921835

$$$$
design_4
 OpenBabel05252019093D

 23 25  0  0  0  0  0  0  0  0999 V2000
   39.9157  -48.0204    6.4808 C   0  0  0  0  0  0  0  0  0  0  0  0
   40.1994  -47.1400    7.6548 C   0  0  0  0  0  0  0  0  0  0  0  0
   39.2957  -47.0028    8.6775 C   0  0  0  0  0  0  0  0  0  0  0  0
   39.5703  -46.1790    9.7650 C   0  0  0  0  0  0  0  0  0  0  0  0
   40.7522  -45.5022    9.8103 C   0  0  0  0  0  0  0  0  0  0  0  0
   41.7186  -45.6070    8.7846 C   0  0  0  0  0  0  0  0  0  0  0  0
   42.9205  -44.8791    8.9030 N   0  0  0  0  0  0  0  0  0  0  0  0
   43.1838  -44.0740    9.9766 C   0  0  0  0  0  0  0  0  0  0  0  0
   44.3866  -43.4789    9.8038 N   0  0  0  0  0  0  0  0  0  0  0  0
   44.8712  -43.8961    8.6521 N   0  0  0  0  0  0  0  0  0  0  0  0
   43.9557  -44.7573    8.1130 C   0  0  0  0  0  0  0  0  0  0  0  0
   44.2920  -45.5603    6.5665 S   0  0  0  0  0  0  0  0  0  0  0  0
   45.8327  -44.9416    5.8273 C   0  0  0  0  0  0  0  0  0  0  0  0
   46.0147  -45.5501    4.4392 C   0  0  0  0  0  0  0  0  0  0  0  0
   45.0201  -45.5081    3.6772 O   0  0  0  0  0  0  0  0  0  0  0  0
   47.2559  -46.0945    4.1381 N   0  0  0  0  0  0  0  0  0  0  0  0
   47.6576  -46.7039    2.9245 C   0  0  0  0  0  0  0  0  0  0  0  0
   48.9420  -47.2494    2.8355 C   0  0  0  0  0  0  0  0  0  0  0  0
   49.3709  -47.8343    1.6821 C   0  0  0  0  0  0  0  0  0  0  0  0
   48.5470  -47.8965    0.5900 C   0  0  0  0  0  0  0  0  0  0  0  0
   47.2968  -47.3767    0.6452 C   0  0  0  0  0  0  0  0  0  0  0  0
   46.8499  -46.7766    1.8212 C   0  0  0  0  0  0  0  0  0  0  0  0
   41.3858  -46.4304    7.7494 C   0  0  0  0  0  0  0  0  0  0  0  0
  1  2  1  0  0  0  0
  2  3  2  0  0  0  0
  3  4  1  0  0  0  0
  4  5  2  0  0  0  0
  5  6  1  0  0  0  0
  6  7  1  0  0  0  0
  6 23  2  0  0  0  0
  7  8  1  0  0  0  0
  8  9  2  0  0  0  0
  9 10  1  0  0  0  0
 10 11  2  0  0  0  0
 11 12  1  0  0  0  0
 11  7  1  0  0  0  0
 12 13  1  0  0  0  0
 13 14  1  0  0  0  0
 14 15  2  0  0  0  0
 14 16  1  0  0  0  0
 16 17  1  0  0  0  0
 17 18  2  0  0  0  0
 18 19  1  0  0  0  0
 19 20  2  0  0  0  0
 20 21  1  0  0  0  0
 21 22  2  0  0  0  0
 22 17  1  0  0  0  0
 23  2  1  0  0  0  0
M  END
>  <CHROM.1>
-0.03433253,176.17079429,-174.35774639,48.14742707,-177.15302642,44.32145330
-45.98104717,6.08876586,2.40966588,0.38868426,0.98259944

>  <Name>
design_4

>  <RI>
0

>  <Rbt.Current_Directory>
/home/ziqiaoxu/icml18-jtnn/VAEdesign

>  <Rbt.Executable>
rbdock ($Id: //depot/dev/client3/rdock/2013.1/src/exe/rbdock.cxx#4 $)

>  <Rbt.Library>
libRbt.so (2013.1, Build901 2013/11/27)

>  <Rbt.Parameter_File>
/export/apps/rDock/src/rDock_2013.1_src//data/scripts/dock.prm

>  <Rbt.Receptor>
/home/ziqiaoxu/icml18-jtnn/VAEdesign/targets/RdRp-SARS-CoV-2/pocket_docking.prm

>  <SCORE>
-20.3823

>  <SCORE.INTER>
-18.3934

>  <SCORE.INTER.CONST>
1

>  <SCORE.INTER.POLAR>
-0.924621

>  <SCORE.INTER.REPUL>
0

>  <SCORE.INTER.ROT>
5

>  <SCORE.INTER.VDW>
-25.6497

>  <SCORE.INTER.norm>
-0.799715

>  <SCORE.INTRA>
-1.9889

>  <SCORE.INTRA.DIHEDRAL>
-6.79281

>  <SCORE.INTRA.DIHEDRAL.0>
8.2591

>  <SCORE.INTRA.POLAR>
0

>  <SCORE.INTRA.POLAR.0>
0

>  <SCORE.INTRA.REPUL>
0

>  <SCORE.INTRA.REPUL.0>
0

>  <SCORE.INTRA.VDW>
1.4075

>  <SCORE.INTRA.VDW.0>
-1.85924

>  <SCORE.INTRA.norm>
-0.0864741

>  <SCORE.RESTR>
0

>  <SCORE.RESTR.CAVITY>
0

>  <SCORE.RESTR.norm>
0

>  <SCORE.SYSTEM>
0

>  <SCORE.SYSTEM.CONST>
0

>  <SCORE.SYSTEM.DIHEDRAL>
0

>  <SCORE.SYSTEM.norm>
0

>  <SCORE.heavy>
23

>  <SCORE.norm>
-0.886189

$$$$
design_5
 OpenBabel05252019093D

 22 23  0  0  0  0  0  0  0  0999 V2000
   40.1492  -36.5647    1.8135 C   0  0  0  0  0  0  0  0  0  0  0  0
   40.0475  -37.6616    2.8472 C   0  0  0  0  0  0  0  0  0  0  0  0
   39.9298  -38.8228    2.3919 O   0  0  0  0  0  0  0  0  0  0  0  0
   40.0885  -37.3317    4.2040 N   0  0  0  0  0  0  0  0  0  0  0  0
   40.0168  -38.1818    5.3270 C   0  0  0  0  0  0  0  0  0  0  0  0
   39.9314  -39.5328    5.2567 C   0  0  0  0  0  0  0  0  0  0  0  0
   39.8443  -40.2996    6.3874 C   0  0  0  0  0  0  0  0  0  0  0  0
   39.8366  -39.7658    7.6799 C   0  0  0  0  0  0  0  0  0  0  0  0
   39.7532  -40.6086    8.7996 N   0  0  0  0  0  0  0  0  0  0  0  0
   39.8104  -41.9950    8.8894 C   0  0  0  0  0  0  0  0  0  0  0  0
   39.9602  -42.7025    7.8809 O   0  0  0  0  0  0  0  0  0  0  0  0
   39.6940  -42.6540   10.1925 C   0  0  0  0  0  0  0  0  0  0  0  0
   40.6685  -44.1122   10.4326 S   0  0  0  0  0  0  0  0  0  0  0  0
   40.3184  -45.4566    9.3176 C   0  0  0  0  0  0  0  0  0  0  0  0
   41.1548  -45.8748    8.3091 C   0  0  0  0  0  0  0  0  0  0  0  0
   40.8019  -46.9365    7.4691 C   0  0  0  0  0  0  0  0  0  0  0  0
   39.6112  -47.6156    7.6032 C   0  0  0  0  0  0  0  0  0  0  0  0
   39.2498  -48.7480    6.6984 C   0  0  0  0  0  0  0  0  0  0  0  0
   38.7697  -47.2001    8.6128 C   0  0  0  0  0  0  0  0  0  0  0  0
   39.1162  -46.1560    9.4389 C   0  0  0  0  0  0  0  0  0  0  0  0
   39.9236  -38.4027    7.7434 C   0  0  0  0  0  0  0  0  0  0  0  0
   40.0123  -37.6115    6.6060 C   0  0  0  0  0  0  0  0  0  0  0  0
  1  2  1  0  0  0  0
  2  3  2  0  0  0  0
  2  4  1  0  0  0  0
  4  5  1  0  0  0  0
  5  6  2  0  0  0  0
  6  7  1  0  0  0  0
  7  8  2  0  0  0  0
  8  9  1  0  0  0  0
  8 21  1  0  0  0  0
  9 10  1  0  0  0  0
 10 11  2  0  0  0  0
 10 12  1  0  0  0  0
 12 13  1  0  0  0  0
 13 14  1  0  0  0  0
 14 15  2  0  0  0  0
 15 16  1  0  0  0  0
 16 17  2  0  0  0  0
 17 18  1  0  0  0  0
 17 19  1  0  0  0  0
 19 20  2  0  0  0  0
 20 14  1  0  0  0  0
 21 22  2  0  0  0  0
 22  5  1  0  0  0  0
M  END
>  <CHROM.1>
2.15797383,7.65270834,-144.29804191,-60.86119780,109.00649245,39.98035434
-42.08545219,7.14190514,1.38405771,-1.51809795,-0.68202013

>  <Name>
design_5

>  <RI>
0

>  <Rbt.Current_Directory>
/home/ziqiaoxu/icml18-jtnn/VAEdesign

>  <Rbt.Executable>
rbdock ($Id: //depot/dev/client3/rdock/2013.1/src/exe/rbdock.cxx#4 $)

>  <Rbt.Library>
libRbt.so (2013.1, Build901 2013/11/27)

>  <Rbt.Parameter_File>
/export/apps/rDock/src/rDock_2013.1_src//data/scripts/dock.prm

>  <Rbt.Receptor>
/home/ziqiaoxu/icml18-jtnn/VAEdesign/targets/RdRp-SARS-CoV-2/pocket_docking.prm

>  <SCORE>
-18.9619

>  <SCORE.INTER>
-18.4934

>  <SCORE.INTER.CONST>
1

>  <SCORE.INTER.POLAR>
-0.954177

>  <SCORE.INTER.REPUL>
0

>  <SCORE.INTER.ROT>
5

>  <SCORE.INTER.VDW>
-25.6492

>  <SCORE.INTER.norm>
-0.840608

>  <SCORE.INTRA>
-0.48145

>  <SCORE.INTRA.DIHEDRAL>
-0.784964

>  <SCORE.INTRA.DIHEDRAL.0>
4.38639

>  <SCORE.INTRA.POLAR>
0

>  <SCORE.INTRA.POLAR.0>
0

>  <SCORE.INTRA.REPUL>
0

>  <SCORE.INTRA.REPUL.0>
0

>  <SCORE.INTRA.VDW>
-0.0889674

>  <SCORE.INTRA.VDW.0>
-1.37319

>  <SCORE.INTRA.norm>
-0.0218841

>  <SCORE.RESTR>
0.0129376

>  <SCORE.RESTR.CAVITY>
0.0129376

>  <SCORE.RESTR.norm>
0.000588071

>  <SCORE.SYSTEM>
0

>  <SCORE.SYSTEM.CONST>
0

>  <SCORE.SYSTEM.DIHEDRAL>
0

>  <SCORE.SYSTEM.norm>
0

>  <SCORE.heavy>
22

>  <SCORE.norm>
-0.861904

$$$$
design_5
 OpenBabel05252019093D

 25 28  0  0  0  0  0  0  0  0999 V2000
   39.2725  -47.7432    8.6873 O   0  0  0  0  0  0  0  0  0  0  0  0
   40.0809  -47.4573    7.7704 C   0  0  0  0  0  0  0  0  0  0  0  0
   40.0146  -48.2019    6.5002 C   0  0  0  0  0  0  0  0  0  0  0  0
   38.5830  -48.6211    6.2472 C   0  0  0  0  0  0  0  0  0  0  0  0
   37.7868  -47.4208    5.8233 C   0  0  0  0  0  0  0  0  0  0  0  0
   36.8136  -47.3833    4.8948 N   0  0  0  0  0  0  0  0  0  0  0  0
   36.3734  -46.1368    4.8278 N   0  0  0  0  0  0  0  0  0  0  0  0
   37.0569  -45.3827    5.7040 C   0  0  0  0  0  0  0  0  0  0  0  0
   36.8823  -43.9575    5.9446 C   0  0  0  0  0  0  0  0  0  0  0  0
   37.9094  -43.2492    6.5286 C   0  0  0  0  0  0  0  0  0  0  0  0
   37.8046  -41.8990    6.7818 C   0  0  0  0  0  0  0  0  0  0  0  0
   36.6530  -41.2339    6.4479 C   0  0  0  0  0  0  0  0  0  0  0  0
   35.6351  -41.9571    5.8646 C   0  0  0  0  0  0  0  0  0  0  0  0
   35.7650  -43.2845    5.6269 N   0  0  0  0  0  0  0  0  0  0  0  0
   37.9047  -46.2124    6.2839 O   0  0  0  0  0  0  0  0  0  0  0  0
   41.0650  -46.4313    7.9191 N   0  0  0  0  0  0  0  0  0  0  0  0
   41.9475  -46.1642    6.8406 C   0  0  0  0  0  0  0  0  0  0  0  0
   43.1404  -45.3309    7.1316 C   0  0  0  0  0  0  0  0  0  0  0  0
   43.2356  -44.9343    8.4580 O   0  0  0  0  0  0  0  0  0  0  0  0
   42.0410  -44.5163    8.9853 C   0  0  1  0  0  0  0  0  0  0  0  0
   41.4003  -43.3652    8.2404 C   0  0  0  0  0  0  0  0  0  0  0  0
   40.1243  -42.9766    8.9132 C   0  0  0  0  0  0  0  0  0  0  0  0
   39.7866  -43.8586   10.0900 C   0  0  0  0  0  0  0  0  0  0  0  0
   39.7378  -45.2890    9.5643 C   0  0  0  0  0  0  0  0  0  0  0  0
   41.1348  -45.7011    9.1524 C   0  0  1  0  0  0  0  0  0  0  0  0
  1  2  2  0  0  0  0
  2  3  1  0  0  0  0
  2 16  1  0  0  0  0
  3  4  1  0  0  0  0
  4  5  1  0  0  0  0
  5  6  2  0  0  0  0
  6  7  1  0  0  0  0
  7  8  2  0  0  0  0
  8  9  1  0  0  0  0
  8 15  1  0  0  0  0
  9 10  2  0  0  0  0
 10 11  1  0  0  0  0
 11 12  2  0  0  0  0
 12 13  1  0  0  0  0
 13 14  2  0  0  0  0
 14  9  1  0  0  0  0
 15  5  1  0  0  0  0
 16 17  1  0  0  0  0
 17 18  1  0  0  0  0
 18 19  1  0  0  0  0
 19 20  1  0  0  0  0
 20 21  1  6  0  0  0
 21 22  1  0  0  0  0
 22 23  1  0  0  0  0
 23 24  1  0  0  0  0
 25 24  1  6  0  0  0
 25 16  1  0  0  0  0
 25 20  1  0  0  0  0
M  END
>  <CHROM.1>
30.92709513,74.16018239,142.00316987,-159.08640862,39.18203364,-45.18299889
7.19854559,0.16581432,0.51509181,-2.89979333

>  <Name>
design_5

>  <RI>
0

>  <Rbt.Current_Directory>
/home/ziqiaoxu/icml18-jtnn/VAEdesign

>  <Rbt.Executable>
rbdock ($Id: //depot/dev/client3/rdock/2013.1/src/exe/rbdock.cxx#4 $)

>  <Rbt.Library>
libRbt.so (2013.1, Build901 2013/11/27)

>  <Rbt.Parameter_File>
/export/apps/rDock/src/rDock_2013.1_src//data/scripts/dock.prm

>  <Rbt.Receptor>
/home/ziqiaoxu/icml18-jtnn/VAEdesign/targets/RdRp-SARS-CoV-2/pocket_docking.prm

>  <SCORE>
-17.2372

>  <SCORE.INTER>
-16.0185

>  <SCORE.INTER.CONST>
1

>  <SCORE.INTER.POLAR>
0

>  <SCORE.INTER.REPUL>
0.0461314

>  <SCORE.INTER.ROT>
4

>  <SCORE.INTER.VDW>
-25.6491

>  <SCORE.INTER.norm>
-0.640739

>  <SCORE.INTRA>
-1.21872

>  <SCORE.INTRA.DIHEDRAL>
3.16734

>  <SCORE.INTRA.DIHEDRAL.0>
2.45629

>  <SCORE.INTRA.POLAR>
0

>  <SCORE.INTRA.POLAR.0>
0

>  <SCORE.INTRA.REPUL>
0

>  <SCORE.INTRA.REPUL.0>
0

>  <SCORE.INTRA.VDW>
-2.80239

>  <SCORE.INTRA.VDW.0>
1.1921

>  <SCORE.INTRA.norm>
-0.0487488

>  <SCORE.RESTR>
0

>  <SCORE.RESTR.CAVITY>
0

>  <SCORE.RESTR.norm>
0

>  <SCORE.SYSTEM>
0

>  <SCORE.SYSTEM.CONST>
0

>  <SCORE.SYSTEM.DIHEDRAL>
0

>  <SCORE.SYSTEM.norm>
0

>  <SCORE.heavy>
25

>  <SCORE.norm>
-0.689488

$$$$
design_16
 OpenBabel05252019093D

 22 24  0  0  0  0  0  0  0  0999 V2000
   46.7978  -44.4996    6.2956 O   0  0  0  0  0  0  0  0  0  0  0  0
   45.7642  -45.1334    5.9698 C   0  0  0  0  0  0  0  0  0  0  0  0
   45.6831  -45.8063    4.7201 N   0  0  0  0  0  0  0  0  0  0  0  0
   46.7520  -45.8041    3.7738 C   0  0  0  0  0  0  0  0  0  0  0  0
   46.6986  -46.8357    2.7083 C   0  0  0  0  0  0  0  0  0  0  0  0
   45.6968  -46.4726    1.6890 C   0  0  0  0  0  0  0  0  0  0  0  0
   46.1352  -46.5062    0.3619 C   0  0  0  0  0  0  0  0  0  0  0  0
   45.2556  -46.1938   -0.6222 C   0  0  0  0  0  0  0  0  0  0  0  0
   43.9616  -45.8507   -0.3371 C   0  0  0  0  0  0  0  0  0  0  0  0
   43.5360  -45.8199    0.9743 C   0  0  0  0  0  0  0  0  0  0  0  0
   44.4145  -46.1354    2.0072 C   0  0  0  0  0  0  0  0  0  0  0  0
   44.6572  -45.1536    6.9142 C   0  0  0  0  0  0  0  0  0  0  0  0
   43.5031  -45.8374    6.8270 N   0  0  0  0  0  0  0  0  0  0  0  0
   42.7329  -45.5935    7.9015 C   0  0  0  0  0  0  0  0  0  0  0  0
   41.4027  -46.1439    8.1853 C   0  0  0  0  0  0  0  0  0  0  0  0
   40.7347  -45.7658    9.3169 C   0  0  0  0  0  0  0  0  0  0  0  0
   39.4819  -46.2801    9.5904 C   0  0  0  0  0  0  0  0  0  0  0  0
   38.8737  -47.1831    8.7363 C   0  0  0  0  0  0  0  0  0  0  0  0
   39.5763  -47.5472    7.5968 C   0  0  0  0  0  0  0  0  0  0  0  0
   40.8075  -47.0402    7.3303 C   0  0  0  0  0  0  0  0  0  0  0  0
   43.4475  -44.7388    8.6531 N   0  0  0  0  0  0  0  0  0  0  0  0
   44.5814  -44.4860    8.0610 O   0  0  0  0  0  0  0  0  0  0  0  0
  1  2  2  0  0  0  0
  2  3  1  0  0  0  0
  2 12  1  0  0  0  0
  3  4  1  0  0  0  0
  4  5  1  0  0  0  0
  5  6  1  0  0  0  0
  6  7  2  0  0  0  0
  7  8  1  0  0  0  0
  8  9  2  0  0  0  0
  9 10  1  0  0  0  0
 10 11  2  0  0  0  0
 11  6  1  0  0  0  0
 12 13  2  0  0  0  0
 13 14  1  0  0  0  0
 14 15  1  0  0  0  0
 14 21  2  0  0  0  0
 15 16  2  0  0  0  0
 16 17  1  0  0  0  0
 17 18  2  0  0  0  0
 18 19  1  0  0  0  0
 19 20  2  0  0  0  0
 20 15  1  0  0  0  0
 21 22  1  0  0  0  0
 22 12  1  0  0  0  0
M  END
>  <CHROM.1>
163.16770586,75.71919324,129.33906787,-174.75599539,-178.39143777,43.72391054
-45.92036253,5.32383094,-0.98122826,0.30520697,1.38214248

>  <Name>
design_16

>  <RI>
0

>  <Rbt.Current_Directory>
/home/ziqiaoxu/icml18-jtnn/VAEdesign

>  <Rbt.Executable>
rbdock ($Id: //depot/dev/client3/rdock/2013.1/src/exe/rbdock.cxx#4 $)

>  <Rbt.Library>
libRbt.so (2013.1, Build901 2013/11/27)

>  <Rbt.Parameter_File>
/export/apps/rDock/src/rDock_2013.1_src//data/scripts/dock.prm

>  <Rbt.Receptor>
/home/ziqiaoxu/icml18-jtnn/VAEdesign/targets/RdRp-SARS-CoV-2/pocket_docking.prm

>  <SCORE>
-13.6523

>  <SCORE.INTER>
-15.2468

>  <SCORE.INTER.CONST>
1

>  <SCORE.INTER.POLAR>
0

>  <SCORE.INTER.REPUL>
0

>  <SCORE.INTER.ROT>
5

>  <SCORE.INTER.VDW>
-25.6468

>  <SCORE.INTER.norm>
-0.693036

>  <SCORE.INTRA>
1.59446

>  <SCORE.INTRA.DIHEDRAL>
1.00004

>  <SCORE.INTRA.DIHEDRAL.0>
1.91382

>  <SCORE.INTRA.POLAR>
0

>  <SCORE.INTRA.POLAR.0>
0

>  <SCORE.INTRA.REPUL>
0

>  <SCORE.INTRA.REPUL.0>
0

>  <SCORE.INTRA.VDW>
1.09443

>  <SCORE.INTRA.VDW.0>
-1.83508

>  <SCORE.INTRA.norm>
0.0724752

>  <SCORE.RESTR>
0

>  <SCORE.RESTR.CAVITY>
0

>  <SCORE.RESTR.norm>
0

>  <SCORE.SYSTEM>
0

>  <SCORE.SYSTEM.CONST>
0

>  <SCORE.SYSTEM.DIHEDRAL>
0

>  <SCORE.SYSTEM.norm>
0

>  <SCORE.heavy>
22

>  <SCORE.norm>
-0.62056

$$$$
design_7
 OpenBabel05252019093D

 25 28  0  0  0  0  0  0  0  0999 V2000
   43.1234  -43.4568    7.1250 O   0  0  0  0  0  0  0  0  0  0  0  0
   43.7672  -44.1005    7.9886 C   0  0  0  0  0  0  0  0  0  0  0  0
   43.2103  -44.1767    9.3328 C   0  0  0  0  0  0  0  0  0  0  0  0
   41.9724  -44.9162    9.5416 C   0  0  0  0  0  0  0  0  0  0  0  0
   41.1776  -44.7940   10.6923 C   0  0  0  0  0  0  0  0  0  0  0  0
   40.1388  -45.6014   10.5138 N   0  0  0  0  0  0  0  0  0  0  0  0
   40.2091  -46.2397    9.3193 C   0  0  0  0  0  0  0  0  0  0  0  0
   39.3587  -47.1504    8.7338 C   0  0  0  0  0  0  0  0  0  0  0  0
   39.6830  -47.6380    7.4967 C   0  0  0  0  0  0  0  0  0  0  0  0
   38.8520  -48.5444    6.8923 F   0  0  0  0  0  0  0  0  0  0  0  0
   40.8270  -47.2447    6.8298 C   0  0  0  0  0  0  0  0  0  0  0  0
   41.6794  -46.3196    7.4357 C   0  0  0  0  0  0  0  0  0  0  0  0
   41.3738  -45.8170    8.6794 C   0  0  0  0  0  0  0  0  0  0  0  0
   44.9812  -44.6960    7.5821 N   0  0  0  0  0  0  0  0  0  0  0  0
   45.5218  -44.5732    6.2598 C   0  0  0  0  0  0  0  0  0  0  0  0
   44.6909  -45.3603    5.2568 C   0  0  0  0  0  0  0  0  0  0  0  0
   45.4313  -45.6685    4.0077 C   0  0  0  0  0  0  0  0  0  0  0  0
   46.7393  -45.9655    3.8087 C   0  0  0  0  0  0  0  0  0  0  0  0
   46.9422  -46.1857    2.4856 N   0  0  0  0  0  0  0  0  0  0  0  0
   45.7630  -46.0291    1.8329 C   0  0  0  0  0  0  0  0  0  0  0  0
   45.4267  -46.1405    0.4971 C   0  0  0  0  0  0  0  0  0  0  0  0
   44.1382  -45.9295    0.0943 C   0  0  0  0  0  0  0  0  0  0  0  0
   43.1463  -45.6028    0.9914 C   0  0  0  0  0  0  0  0  0  0  0  0
   43.5075  -45.4970    2.3292 C   0  0  0  0  0  0  0  0  0  0  0  0
   44.7927  -45.7027    2.7665 C   0  0  0  0  0  0  0  0  0  0  0  0
  1  2  2  0  0  0  0
  2  3  1  0  0  0  0
  2 14  1  0  0  0  0
  3  4  1  0  0  0  0
  4  5  2  0  0  0  0
  5  6  1  0  0  0  0
  6  7  1  0  0  0  0
  7  8  2  0  0  0  0
  8  9  1  0  0  0  0
  9 10  1  0  0  0  0
  9 11  2  0  0  0  0
 11 12  1  0  0  0  0
 12 13  2  0  0  0  0
 13  4  1  0  0  0  0
 13  7  1  0  0  0  0
 14 15  1  0  0  0  0
 15 16  1  0  0  0  0
 16 17  1  0  0  0  0
 17 18  2  0  0  0  0
 18 19  1  0  0  0  0
 19 20  1  0  0  0  0
 20 21  2  0  0  0  0
 21 22  1  0  0  0  0
 22 23  2  0  0  0  0
 23 24  1  0  0  0  0
 24 25  2  0  0  0  0
 25 17  1  0  0  0  0
 25 20  1  0  0  0  0
M  END
>  <CHROM.1>
67.04773103,-163.92399686,-70.50486502,-159.76334369,35.45621397,43.02015381
-45.75239388,5.98346705,-2.23811084,-0.48466846,-1.89112442

>  <Name>
design_7

>  <RI>
0

>  <Rbt.Current_Directory>
/home/ziqiaoxu/icml18-jtnn/VAEdesign

>  <Rbt.Executable>
rbdock ($Id: //depot/dev/client3/rdock/2013.1/src/exe/rbdock.cxx#4 $)

>  <Rbt.Library>
libRbt.so (2013.1, Build901 2013/11/27)

>  <Rbt.Parameter_File>
/export/apps/rDock/src/rDock_2013.1_src//data/scripts/dock.prm

>  <Rbt.Receptor>
/home/ziqiaoxu/icml18-jtnn/VAEdesign/targets/RdRp-SARS-CoV-2/pocket_docking.prm

>  <SCORE>
-19.0768

>  <SCORE.INTER>
-21.4203

>  <SCORE.INTER.CONST>
1

>  <SCORE.INTER.POLAR>
-1.81582

>  <SCORE.INTER.REPUL>
0

>  <SCORE.INTER.ROT>
5

>  <SCORE.INTER.VDW>
-25.6466

>  <SCORE.INTER.norm>
-0.856814

>  <SCORE.INTRA>
2.3435

>  <SCORE.INTRA.DIHEDRAL>
4.40917

>  <SCORE.INTRA.DIHEDRAL.0>
3.50961

>  <SCORE.INTRA.POLAR>
0

>  <SCORE.INTRA.POLAR.0>
0

>  <SCORE.INTRA.REPUL>
0

>  <SCORE.INTRA.REPUL.0>
0

>  <SCORE.INTRA.VDW>
0.138918

>  <SCORE.INTRA.VDW.0>
-1.60575

>  <SCORE.INTRA.norm>
0.0937401

>  <SCORE.RESTR>
0

>  <SCORE.RESTR.CAVITY>
0

>  <SCORE.RESTR.norm>
0

>  <SCORE.SYSTEM>
0

>  <SCORE.SYSTEM.CONST>
0

>  <SCORE.SYSTEM.DIHEDRAL>
0

>  <SCORE.SYSTEM.norm>
0

>  <SCORE.heavy>
25

>  <SCORE.norm>
-0.763074

$$$$
design_7
 OpenBabel05252019093D

 26 28  0  0  0  0  0  0  0  0999 V2000
   40.1228  -36.0947    4.9960 C   0  0  0  0  0  0  0  0  0  0  0  0
   39.9445  -37.3375    4.2856 N   0  0  0  0  0  0  0  0  0  0  0  0
   39.7112  -37.2187    2.8095 C   0  0  0  0  0  0  0  0  0  0  0  0
   40.9185  -37.7591    2.0975 C   0  0  0  0  0  0  0  0  0  0  0  0
   41.8074  -36.9165    1.8401 O   0  0  0  0  0  0  0  0  0  0  0  0
   41.0410  -39.1028    1.7478 N   0  0  0  0  0  0  0  0  0  0  0  0
   42.1276  -39.6845    1.0773 C   0  0  0  0  0  0  0  0  0  0  0  0
   43.1728  -39.0010    0.5430 C   0  0  0  0  0  0  0  0  0  0  0  0
   44.2161  -39.6878   -0.0864 C   0  0  0  0  0  0  0  0  0  0  0  0
   44.2104  -41.0337   -0.1786 C   0  0  0  0  0  0  0  0  0  0  0  0
   43.1800  -41.7820    0.3417 C   0  0  0  0  0  0  0  0  0  0  0  0
   43.2672  -43.1830    0.2132 N   0  0  0  0  0  0  0  0  0  0  0  0
   42.8032  -44.1491    1.1036 C   0  0  0  0  0  0  0  0  0  0  0  0
   42.2249  -43.8283    2.1642 O   0  0  0  0  0  0  0  0  0  0  0  0
   42.9564  -45.6136    0.8674 C   0  0  0  0  0  0  0  0  0  0  0  0
   44.4202  -46.0479    0.8019 C   0  0  0  0  0  0  0  0  0  0  0  0
   43.5291  -46.1177   -0.3959 C   0  0  0  0  0  0  0  0  0  0  0  0
   42.1702  -41.0987    0.9532 C   0  0  0  0  0  0  0  0  0  0  0  0
   39.9729  -38.6048    4.8477 C   0  0  0  0  0  0  0  0  0  0  0  0
   39.7807  -39.5606    3.9673 O   0  0  0  0  0  0  0  0  0  0  0  0
   40.1722  -39.0306    6.1952 C   0  0  0  0  0  0  0  0  0  0  0  0
   40.4667  -38.2652    7.2883 C   0  0  0  0  0  0  0  0  0  0  0  0
   40.6404  -38.8026    8.5720 C   0  0  0  0  0  0  0  0  0  0  0  0
   40.5177  -40.1469    8.7783 C   0  0  0  0  0  0  0  0  0  0  0  0
   40.2233  -40.9456    7.7065 C   0  0  0  0  0  0  0  0  0  0  0  0
   40.0561  -40.4101    6.4597 C   0  0  0  0  0  0  0  0  0  0  0  0
  1  2  1  0  0  0  0
  2  3  1  0  0  0  0
  2 19  1  0  0  0  0
  3  4  1  0  0  0  0
  4  5  2  0  0  0  0
  4  6  1  0  0  0  0
  6  7  1  0  0  0  0
  7  8  2  0  0  0  0
  8  9  1  0  0  0  0
  9 10  2  0  0  0  0
 10 11  1  0  0  0  0
 11 12  1  0  0  0  0
 11 18  2  0  0  0  0
 12 13  1  0  0  0  0
 13 14  2  0  0  0  0
 13 15  1  0  0  0  0
 15 16  1  0  0  0  0
 16 17  1  0  0  0  0
 17 15  1  0  0  0  0
 18  7  1  0  0  0  0
 19 20  2  0  0  0  0
 19 21  1  0  0  0  0
 21 22  2  0  0  0  0
 22 23  1  0  0  0  0
 23 24  2  0  0  0  0
 24 25  1  0  0  0  0
 25 26  2  0  0  0  0
 26 21  1  0  0  0  0
M  END
>  <CHROM.1>
111.08782727,-90.79625356,-7.07755586,146.65868467,62.36557448,-4.04528629
41.66932281,-40.43580774,3.00868388,-2.94933123,-1.17405928,2.57984289

>  <Name>
design_7

>  <RI>
0

>  <Rbt.Current_Directory>
/home/ziqiaoxu/icml18-jtnn/VAEdesign

>  <Rbt.Executable>
rbdock ($Id: //depot/dev/client3/rdock/2013.1/src/exe/rbdock.cxx#4 $)

>  <Rbt.Library>
libRbt.so (2013.1, Build901 2013/11/27)

>  <Rbt.Parameter_File>
/export/apps/rDock/src/rDock_2013.1_src//data/scripts/dock.prm

>  <Rbt.Receptor>
/home/ziqiaoxu/icml18-jtnn/VAEdesign/targets/RdRp-SARS-CoV-2/pocket_docking.prm

>  <SCORE>
-21.0355

>  <SCORE.INTER>
-20.7473

>  <SCORE.INTER.CONST>
1

>  <SCORE.INTER.POLAR>
-1.91836

>  <SCORE.INTER.REPUL>
0.00371982

>  <SCORE.INTER.ROT>
6

>  <SCORE.INTER.VDW>
-25.6435

>  <SCORE.INTER.norm>
-0.797973

>  <SCORE.INTRA>
-0.290222

>  <SCORE.INTRA.DIHEDRAL>
2.06009

>  <SCORE.INTRA.DIHEDRAL.0>
6.68758

>  <SCORE.INTRA.POLAR>
-0.229756

>  <SCORE.INTRA.POLAR.0>
0

>  <SCORE.INTRA.REPUL>
0

>  <SCORE.INTRA.REPUL.0>
0

>  <SCORE.INTRA.VDW>
-0.539097

>  <SCORE.INTRA.VDW.0>
-0.538403

>  <SCORE.INTRA.norm>
-0.0111624

>  <SCORE.RESTR>
0.0019683

>  <SCORE.RESTR.CAVITY>
0.0019683

>  <SCORE.RESTR.norm>
7.57037e-05

>  <SCORE.SYSTEM>
0

>  <SCORE.SYSTEM.CONST>
0

>  <SCORE.SYSTEM.DIHEDRAL>
0

>  <SCORE.SYSTEM.norm>
0

>  <SCORE.heavy>
26

>  <SCORE.norm>
-0.809059

$$$$
design_2
 OpenBabel05252019093D

 24 26  0  0  0  0  0  0  0  0999 V2000
   45.4876  -45.2909    4.6755 C   0  0  0  0  0  0  0  0  0  0  0  0
   45.6359  -44.7926    6.0686 C   0  0  0  0  0  0  0  0  0  0  0  0
   46.6863  -44.1325    6.5542 N   0  0  0  0  0  0  0  0  0  0  0  0
   46.5044  -43.8378    7.8132 N   0  0  0  0  0  0  0  0  0  0  0  0
   45.2849  -44.3180    8.1928 C   0  0  0  0  0  0  0  0  0  0  0  0
   44.7289  -44.1534    9.5503 C   0  0  0  0  0  0  0  0  0  0  0  0
   45.5156  -43.8591   10.6399 C   0  0  0  0  0  0  0  0  0  0  0  0
   44.9446  -43.7305   11.8991 C   0  0  0  0  0  0  0  0  0  0  0  0
   43.5940  -43.8869   12.1178 C   0  0  0  0  0  0  0  0  0  0  0  0
   42.7961  -44.1807   11.0482 C   0  0  0  0  0  0  0  0  0  0  0  0
   41.3106  -44.4068   11.1217 C   0  0  0  0  0  0  0  0  0  0  0  0
   40.7217  -45.2097   10.1941 N   0  0  0  0  0  0  0  0  0  0  0  0
   40.1289  -46.0165    9.2640 C   0  0  0  0  0  0  0  0  0  0  0  0
   39.0373  -46.6665    9.5304 O   0  0  0  0  0  0  0  0  0  0  0  0
   40.5904  -46.2745    7.8812 C   0  0  0  0  0  0  0  0  0  0  0  0
   42.0402  -45.6473    7.1689 S   0  0  0  0  0  0  0  0  0  0  0  0
   41.9254  -46.3147    5.6214 C   0  0  0  0  0  0  0  0  0  0  0  0
   40.7565  -47.0203    5.6837 C   0  0  0  0  0  0  0  0  0  0  0  0
   40.0667  -46.9979    6.8552 C   0  0  0  0  0  0  0  0  0  0  0  0
   38.7365  -47.7387    6.9389 C   0  0  0  0  0  0  0  0  0  0  0  0
   38.8836  -49.1899    6.5052 C   0  0  0  0  0  0  0  0  0  0  0  0
   37.7780  -47.1274    5.9305 C   0  0  0  0  0  0  0  0  0  0  0  0
   43.3844  -44.3087    9.7769 C   0  0  0  0  0  0  0  0  0  0  0  0
   44.7661  -44.9009    7.1083 N   0  0  0  0  0  0  0  0  0  0  0  0
  1  2  1  0  0  0  0
  2  3  2  0  0  0  0
  3  4  1  0  0  0  0
  4  5  1  0  0  0  0
  5  6  1  0  0  0  0
  5 24  2  0  0  0  0
  6  7  2  0  0  0  0
  7  8  1  0  0  0  0
  8  9  2  0  0  0  0
  9 10  1  0  0  0  0
 10 11  1  0  0  0  0
 10 23  2  0  0  0  0
 11 12  1  0  0  0  0
 12 13  1  0  0  0  0
 13 14  2  0  0  0  0
 13 15  1  0  0  0  0
 15 16  1  0  0  0  0
 16 17  1  0  0  0  0
 17 18  2  0  0  0  0
 18 19  1  0  0  0  0
 19 20  1  0  0  0  0
 19 15  2  0  0  0  0
 20 21  1  0  0  0  0
 20 22  1  0  0  0  0
 23  6  1  0  0  0  0
 24  2  1  0  0  0  0
M  END
>  <CHROM.1>
-19.38268912,-152.45660500,150.61732967,2.83108520,-128.57548068,42.48440735
-45.45654183,8.17128089,-0.40425663,-0.38525967,-1.88738738

>  <Name>
design_2

>  <RI>
0

>  <Rbt.Current_Directory>
/home/ziqiaoxu/icml18-jtnn/VAEdesign

>  <Rbt.Executable>
rbdock ($Id: //depot/dev/client3/rdock/2013.1/src/exe/rbdock.cxx#4 $)

>  <Rbt.Library>
libRbt.so (2013.1, Build901 2013/11/27)

>  <Rbt.Parameter_File>
/export/apps/rDock/src/rDock_2013.1_src//data/scripts/dock.prm

>  <Rbt.Receptor>
/home/ziqiaoxu/icml18-jtnn/VAEdesign/targets/RdRp-SARS-CoV-2/pocket_docking.prm

>  <SCORE>
-19.516

>  <SCORE.INTER>
-18.6973

>  <SCORE.INTER.CONST>
1

>  <SCORE.INTER.POLAR>
-1.01639

>  <SCORE.INTER.REPUL>
0

>  <SCORE.INTER.ROT>
5

>  <SCORE.INTER.VDW>
-25.6416

>  <SCORE.INTER.norm>
-0.779055

>  <SCORE.INTRA>
-0.818718

>  <SCORE.INTRA.DIHEDRAL>
2.14948

>  <SCORE.INTRA.DIHEDRAL.0>
2.06013

>  <SCORE.INTRA.POLAR>
0

>  <SCORE.INTRA.POLAR.0>
0

>  <SCORE.INTRA.REPUL>
0

>  <SCORE.INTRA.REPUL.0>
0

>  <SCORE.INTRA.VDW>
-1.89346

>  <SCORE.INTRA.VDW.0>
0.681267

>  <SCORE.INTRA.norm>
-0.0341132

>  <SCORE.RESTR>
0

>  <SCORE.RESTR.CAVITY>
0

>  <SCORE.RESTR.norm>
0

>  <SCORE.SYSTEM>
0

>  <SCORE.SYSTEM.CONST>
0

>  <SCORE.SYSTEM.DIHEDRAL>
0

>  <SCORE.SYSTEM.norm>
0

>  <SCORE.heavy>
24

>  <SCORE.norm>
-0.813168

$$$$
design_2
 OpenBabel05252019093D

 25 27  0  0  0  0  0  0  0  0999 V2000
   47.6029  -47.6308    1.6357 C   0  0  0  0  0  0  0  0  0  0  0  0
   46.4790  -46.9948    1.8396 O   0  0  0  0  0  0  0  0  0  0  0  0
   45.3309  -46.4816    1.6027 C   0  0  0  0  0  0  0  0  0  0  0  0
   44.7054  -46.4905    0.3383 C   0  0  0  0  0  0  0  0  0  0  0  0
   43.4836  -45.9381    0.1325 C   0  0  0  0  0  0  0  0  0  0  0  0
   42.7937  -45.3370    1.1684 C   0  0  0  0  0  0  0  0  0  0  0  0
   43.3587  -45.3008    2.4206 C   0  0  0  0  0  0  0  0  0  0  0  0
   44.5925  -45.8534    2.6408 C   0  0  0  0  0  0  0  0  0  0  0  0
   45.2466  -45.8035    3.8890 N   0  0  0  0  0  0  0  0  0  0  0  0
   44.6159  -45.2079    5.0183 C   0  0  0  0  0  0  0  0  0  0  0  0
   43.4865  -44.7489    4.9832 O   0  0  0  0  0  0  0  0  0  0  0  0
   45.3734  -45.1515    6.3256 C   0  0  0  0  0  0  0  0  0  0  0  0
   44.6437  -44.8262    7.3905 N   0  0  0  0  0  0  0  0  0  0  0  0
   43.8780  -44.4838    8.5318 C   0  0  0  0  0  0  0  0  0  0  0  0
   44.1768  -44.5312    9.7187 O   0  0  0  0  0  0  0  0  0  0  0  0
   42.4831  -44.0006    8.2076 C   0  0  0  0  0  0  0  0  0  0  0  0
   41.4219  -44.7566    8.8682 C   0  0  0  0  0  0  0  0  0  0  0  0
   40.7742  -44.6214   10.0482 C   0  0  0  0  0  0  0  0  0  0  0  0
   39.8313  -45.5976   10.1828 N   0  0  0  0  0  0  0  0  0  0  0  0
   39.8849  -46.3558    9.0685 C   0  0  0  0  0  0  0  0  0  0  0  0
   39.1765  -47.4625    8.6531 C   0  0  0  0  0  0  0  0  0  0  0  0
   39.4408  -48.0484    7.4331 C   0  0  0  0  0  0  0  0  0  0  0  0
   40.4055  -47.5691    6.5890 C   0  0  0  0  0  0  0  0  0  0  0  0
   41.1065  -46.4537    7.0260 C   0  0  0  0  0  0  0  0  0  0  0  0
   40.8508  -45.8654    8.2366 C   0  0  0  0  0  0  0  0  0  0  0  0
  1  2  1  0  0  0  0
  2  3  1  0  0  0  0
  3  4  2  0  0  0  0
  4  5  1  0  0  0  0
  5  6  2  0  0  0  0
  6  7  1  0  0  0  0
  7  8  2  0  0  0  0
  8  9  1  0  0  0  0
  8  3  1  0  0  0  0
  9 10  1  0  0  0  0
 10 11  2  0  0  0  0
 10 12  1  0  0  0  0
 12 13  1  0  0  0  0
 13 14  1  0  0  0  0
 14 15  2  0  0  0  0
 14 16  1  0  0  0  0
 16 17  1  0  0  0  0
 17 18  2  0  0  0  0
 18 19  1  0  0  0  0
 19 20  1  0  0  0  0
 20 21  2  0  0  0  0
 21 22  1  0  0  0  0
 22 23  2  0  0  0  0
 23 24  1  0  0  0  0
 24 25  2  0  0  0  0
 25 17  1  0  0  0  0
 25 20  1  0  0  0  0
M  END
>  <CHROM.1>
-2.51576705,-179.63802769,-167.47541529,168.42853848,124.02319150,90.43505720
43.09351743,-45.81417022,5.67774359,-1.00738810,0.32807811,1.29069318

>  <Name>
design_2

>  <RI>
0

>  <Rbt.Current_Directory>
/home/ziqiaoxu/icml18-jtnn/VAEdesign

>  <Rbt.Executable>
rbdock ($Id: //depot/dev/client3/rdock/2013.1/src/exe/rbdock.cxx#4 $)

>  <Rbt.Library>
libRbt.so (2013.1, Build901 2013/11/27)

>  <Rbt.Parameter_File>
/export/apps/rDock/src/rDock_2013.1_src//data/scripts/dock.prm

>  <Rbt.Receptor>
/home/ziqiaoxu/icml18-jtnn/VAEdesign/targets/RdRp-SARS-CoV-2/pocket_docking.prm

>  <SCORE>
-20.9415

>  <SCORE.INTER>
-20.567

>  <SCORE.INTER.CONST>
1

>  <SCORE.INTER.POLAR>
-1.86924

>  <SCORE.INTER.REPUL>
0.00553613

>  <SCORE.INTER.ROT>
6

>  <SCORE.INTER.VDW>
-25.6392

>  <SCORE.INTER.norm>
-0.822679

>  <SCORE.INTRA>
-0.374485

>  <SCORE.INTRA.DIHEDRAL>
-1.01371

>  <SCORE.INTRA.DIHEDRAL.0>
5.35777

>  <SCORE.INTRA.POLAR>
0

>  <SCORE.INTRA.POLAR.0>
0

>  <SCORE.INTRA.REPUL>
0

>  <SCORE.INTRA.REPUL.0>
0

>  <SCORE.INTRA.VDW>
0.13237

>  <SCORE.INTRA.VDW.0>
-1.51639

>  <SCORE.INTRA.norm>
-0.0149794

>  <SCORE.RESTR>
0

>  <SCORE.RESTR.CAVITY>
0

>  <SCORE.RESTR.norm>
0

>  <SCORE.SYSTEM>
0

>  <SCORE.SYSTEM.CONST>
0

>  <SCORE.SYSTEM.DIHEDRAL>
0

>  <SCORE.SYSTEM.norm>
0

>  <SCORE.heavy>
25

>  <SCORE.norm>
-0.837659

$$$$
design_14
 OpenBabel05252019093D

 24 26  0  0  0  0  0  0  0  0999 V2000
   39.7915  -46.7386    9.7331 N   0  0  0  0  0  0  0  0  0  0  0  0
   39.6653  -47.3009    8.4301 C   0  0  0  0  0  0  0  0  0  0  0  0
   38.6334  -48.1608    8.1367 C   0  0  0  0  0  0  0  0  0  0  0  0
   38.5080  -48.7058    6.8797 C   0  0  0  0  0  0  0  0  0  0  0  0
   39.4379  -48.3695    5.9282 C   0  0  0  0  0  0  0  0  0  0  0  0
   40.4889  -47.4897    6.2382 C   0  0  0  0  0  0  0  0  0  0  0  0
   40.6244  -46.9428    7.4797 C   0  0  0  0  0  0  0  0  0  0  0  0
   41.7107  -46.0167    7.8466 C   0  0  0  0  0  0  0  0  0  0  0  0
   41.5770  -45.3687    8.9517 O   0  0  0  0  0  0  0  0  0  0  0  0
   42.8357  -45.8570    7.0199 N   0  0  0  0  0  0  0  0  0  0  0  0
   43.9534  -45.0384    7.1994 C   0  0  0  0  0  0  0  0  0  0  0  0
   45.0540  -45.2346    6.3611 C   0  0  0  0  0  0  0  0  0  0  0  0
   46.2101  -44.4881    6.4549 C   0  0  0  0  0  0  0  0  0  0  0  0
   46.2977  -43.5065    7.4084 C   0  0  0  0  0  0  0  0  0  0  0  0
   45.2571  -43.2806    8.2426 C   0  0  0  0  0  0  0  0  0  0  0  0
   45.3033  -42.3152    9.2035 O   0  0  0  0  0  0  0  0  0  0  0  0
   46.3271  -42.3289   10.1666 C   0  0  0  0  0  0  0  0  0  0  0  0
   46.1336  -43.4267   11.1303 C   0  0  0  0  0  0  0  0  0  0  0  0
   46.8471  -44.6225   10.9910 C   0  0  0  0  0  0  0  0  0  0  0  0
   46.6525  -45.6451   11.9070 C   0  0  0  0  0  0  0  0  0  0  0  0
   45.7709  -45.5084   12.9520 C   0  0  0  0  0  0  0  0  0  0  0  0
   45.0885  -44.3095   13.0491 C   0  0  0  0  0  0  0  0  0  0  0  0
   45.2814  -43.3126   12.1520 N   0  0  0  0  0  0  0  0  0  0  0  0
   44.0898  -44.0508    8.1311 C   0  0  0  0  0  0  0  0  0  0  0  0
  1  2  1  0  0  0  0
  2  3  2  0  0  0  0
  3  4  1  0  0  0  0
  4  5  2  0  0  0  0
  5  6  1  0  0  0  0
  6  7  2  0  0  0  0
  7  8  1  0  0  0  0
  7  2  1  0  0  0  0
  8  9  2  0  0  0  0
  8 10  1  0  0  0  0
 10 11  1  0  0  0  0
 11 12  2  0  0  0  0
 12 13  1  0  0  0  0
 13 14  2  0  0  0  0
 14 15  1  0  0  0  0
 15 16  1  0  0  0  0
 15 24  2  0  0  0  0
 16 17  1  0  0  0  0
 17 18  1  0  0  0  0
 18 19  2  0  0  0  0
 19 20  1  0  0  0  0
 20 21  2  0  0  0  0
 21 22  1  0  0  0  0
 22 23  2  0  0  0  0
 23 18  1  0  0  0  0
 24 11  1  0  0  0  0
M  END
>  <CHROM.1>
-13.55261225,168.47592677,-56.74483257,-71.87804957,99.28661990,43.38559242
-45.30732645,8.85771429,2.74726451,-0.56070557,-1.52783500

>  <Name>
design_14

>  <RI>
0

>  <Rbt.Current_Directory>
/home/ziqiaoxu/icml18-jtnn/VAEdesign

>  <Rbt.Executable>
rbdock ($Id: //depot/dev/client3/rdock/2013.1/src/exe/rbdock.cxx#4 $)

>  <Rbt.Library>
libRbt.so (2013.1, Build901 2013/11/27)

>  <Rbt.Parameter_File>
/export/apps/rDock/src/rDock_2013.1_src//data/scripts/dock.prm

>  <Rbt.Receptor>
/home/ziqiaoxu/icml18-jtnn/VAEdesign/targets/RdRp-SARS-CoV-2/pocket_docking.prm

>  <SCORE>
-19.4784

>  <SCORE.INTER>
-19.4006

>  <SCORE.INTER.CONST>
1

>  <SCORE.INTER.POLAR>
-1.25646

>  <SCORE.INTER.REPUL>
0.022003

>  <SCORE.INTER.ROT>
5

>  <SCORE.INTER.VDW>
-25.6386

>  <SCORE.INTER.norm>
-0.808357

>  <SCORE.INTRA>
-0.0778739

>  <SCORE.INTRA.DIHEDRAL>
5.07181

>  <SCORE.INTRA.DIHEDRAL.0>
0.870409

>  <SCORE.INTRA.POLAR>
0

>  <SCORE.INTRA.POLAR.0>
0

>  <SCORE.INTRA.REPUL>
0

>  <SCORE.INTRA.REPUL.0>
0

>  <SCORE.INTRA.VDW>
-2.61378

>  <SCORE.INTRA.VDW.0>
2.44723

>  <SCORE.INTRA.norm>
-0.00324475

>  <SCORE.RESTR>
0

>  <SCORE.RESTR.CAVITY>
0

>  <SCORE.RESTR.norm>
0

>  <SCORE.SYSTEM>
0

>  <SCORE.SYSTEM.CONST>
0

>  <SCORE.SYSTEM.DIHEDRAL>
0

>  <SCORE.SYSTEM.norm>
0

>  <SCORE.heavy>
24

>  <SCORE.norm>
-0.811602

$$$$
design_12
 OpenBabel05252019093D

 25 28  0  0  0  0  0  0  0  0999 V2000
   43.9609  -44.6864    8.4141 O   0  0  0  0  0  0  0  0  0  0  0  0
   43.7018  -45.3885    7.4301 C   0  0  0  0  0  0  0  0  0  0  0  0
   44.7242  -45.4968    6.3236 C   0  0  0  0  0  0  0  0  0  0  0  0
   44.2324  -44.7120    5.1649 C   0  0  0  0  0  0  0  0  0  0  0  0
   44.6944  -45.1749    3.8877 N   0  0  0  0  0  0  0  0  0  0  0  0
   46.0210  -45.3807    3.7454 C   0  0  0  0  0  0  0  0  0  0  0  0
   46.5762  -45.8116    2.6000 N   0  0  0  0  0  0  0  0  0  0  0  0
   45.8129  -46.0597    1.5284 C   0  0  0  0  0  0  0  0  0  0  0  0
   46.3584  -46.5061    0.3311 C   0  0  0  0  0  0  0  0  0  0  0  0
   45.4775  -46.7288   -0.7056 C   0  0  0  0  0  0  0  0  0  0  0  0
   44.1193  -46.5341   -0.6097 C   0  0  0  0  0  0  0  0  0  0  0  0
   43.5776  -46.0914    0.5776 C   0  0  0  0  0  0  0  0  0  0  0  0
   44.4490  -45.8585    1.6424 C   0  0  0  0  0  0  0  0  0  0  0  0
   43.9254  -45.4157    2.8370 C   0  0  0  0  0  0  0  0  0  0  0  0
   42.6950  -45.2378    2.9285 O   0  0  0  0  0  0  0  0  0  0  0  0
   42.5037  -46.0909    7.2892 N   0  0  0  0  0  0  0  0  0  0  0  0
   41.3970  -46.1670    8.1519 C   0  0  0  0  0  0  0  0  0  0  0  0
   41.2146  -45.3599    9.2184 C   0  0  0  0  0  0  0  0  0  0  0  0
   40.0795  -45.5104   10.0217 C   0  0  0  0  0  0  0  0  0  0  0  0
   39.1189  -46.4579    9.7766 C   0  0  0  0  0  0  0  0  0  0  0  0
   39.2952  -47.2801    8.6981 C   0  0  0  0  0  0  0  0  0  0  0  0
   38.5617  -48.2867    8.1918 N   0  0  0  0  0  0  0  0  0  0  0  0
   39.1931  -48.7256    7.1555 O   0  0  0  0  0  0  0  0  0  0  0  0
   40.2907  -48.0678    6.9565 N   0  0  0  0  0  0  0  0  0  0  0  0
   40.3989  -47.1379    7.9125 C   0  0  0  0  0  0  0  0  0  0  0  0
  1  2  2  0  0  0  0
  2  3  1  0  0  0  0
  2 16  1  0  0  0  0
  3  4  1  0  0  0  0
  4  5  1  0  0  0  0
  5  6  1  0  0  0  0
  6  7  2  0  0  0  0
  7  8  1  0  0  0  0
  8  9  2  0  0  0  0
  9 10  1  0  0  0  0
 10 11  2  0  0  0  0
 11 12  1  0  0  0  0
 12 13  2  0  0  0  0
 13 14  1  0  0  0  0
 13  8  1  0  0  0  0
 14 15  2  0  0  0  0
 14  5  1  0  0  0  0
 16 17  1  0  0  0  0
 17 18  2  0  0  0  0
 18 19  1  0  0  0  0
 19 20  2  0  0  0  0
 20 21  1  0  0  0  0
 21 22  2  0  0  0  0
 22 23  1  0  0  0  0
 23 24  1  0  0  0  0
 24 25  2  0  0  0  0
 25 17  1  0  0  0  0
 25 21  1  0  0  0  0
M  END
>  <CHROM.1>
-106.84149817,-152.13489636,-50.25109248,11.66361999,42.87650331,-46.17034002
5.21510086,-2.26322556,-0.51027021,-1.84939470

>  <Name>
design_12

>  <RI>
0

>  <Rbt.Current_Directory>
/home/ziqiaoxu/icml18-jtnn/VAEdesign

>  <Rbt.Executable>
rbdock ($Id: //depot/dev/client3/rdock/2013.1/src/exe/rbdock.cxx#4 $)

>  <Rbt.Library>
libRbt.so (2013.1, Build901 2013/11/27)

>  <Rbt.Parameter_File>
/export/apps/rDock/src/rDock_2013.1_src//data/scripts/dock.prm

>  <Rbt.Receptor>
/home/ziqiaoxu/icml18-jtnn/VAEdesign/targets/RdRp-SARS-CoV-2/pocket_docking.prm

>  <SCORE>
-15.5077

>  <SCORE.INTER>
-15.9754

>  <SCORE.INTER.CONST>
1

>  <SCORE.INTER.POLAR>
0

>  <SCORE.INTER.REPUL>
0.0525799

>  <SCORE.INTER.ROT>
4

>  <SCORE.INTER.VDW>
-25.6383

>  <SCORE.INTER.norm>
-0.639015

>  <SCORE.INTRA>
0.467671

>  <SCORE.INTRA.DIHEDRAL>
3.16175

>  <SCORE.INTRA.DIHEDRAL.0>
3.4996

>  <SCORE.INTRA.POLAR>
0

>  <SCORE.INTRA.POLAR.0>
0

>  <SCORE.INTRA.REPUL>
0

>  <SCORE.INTRA.REPUL.0>
0

>  <SCORE.INTRA.VDW>
-1.1132

>  <SCORE.INTRA.VDW.0>
1.03769

>  <SCORE.INTRA.norm>
0.0187068

>  <SCORE.RESTR>
0

>  <SCORE.RESTR.CAVITY>
0

>  <SCORE.RESTR.norm>
0

>  <SCORE.SYSTEM>
0

>  <SCORE.SYSTEM.CONST>
0

>  <SCORE.SYSTEM.DIHEDRAL>
0

>  <SCORE.SYSTEM.norm>
0

>  <SCORE.heavy>
25

>  <SCORE.norm>
-0.620308

$$$$
design_14
 OpenBabel05252019093D

 25 27  0  0  0  0  0  0  0  0999 V2000
   35.9241  -41.6655    6.3770 C   0  0  0  0  0  0  0  0  0  0  0  0
   35.9097  -42.9730    5.6179 C   0  0  0  0  0  0  0  0  0  0  0  0
   36.8126  -43.9394    6.2316 N   0  0  0  0  0  0  0  0  0  0  0  0
   36.6936  -45.3230    5.9687 C   0  0  0  0  0  0  0  0  0  0  0  0
   35.7703  -45.6736    5.1801 O   0  0  0  0  0  0  0  0  0  0  0  0
   37.5316  -46.3554    6.5220 C   0  0  0  0  0  0  0  0  0  0  0  0
   37.6318  -47.5847    5.9071 C   0  0  0  0  0  0  0  0  0  0  0  0
   38.4466  -48.5350    6.4778 C   0  0  0  0  0  0  0  0  0  0  0  0
   39.1682  -48.2886    7.6526 C   0  0  0  0  0  0  0  0  0  0  0  0
   39.0558  -47.0532    8.2539 C   0  0  0  0  0  0  0  0  0  0  0  0
   39.7722  -46.7656    9.4476 N   0  0  0  0  0  0  0  0  0  0  0  0
   40.0708  -45.3849    9.7736 C   0  0  0  0  0  0  0  0  0  0  0  0
   41.4235  -45.0673    9.3332 C   0  0  0  0  0  0  0  0  0  0  0  0
   41.8794  -45.4666    8.1018 C   0  0  0  0  0  0  0  0  0  0  0  0
   43.1234  -45.1535    7.7403 N   0  0  0  0  0  0  0  0  0  0  0  0
   43.9728  -44.4613    8.5160 C   0  0  0  0  0  0  0  0  0  0  0  0
   45.2648  -44.1838    8.0389 N   0  0  0  0  0  0  0  0  0  0  0  0
   45.6820  -44.6067    6.7298 C   0  0  0  0  0  0  0  0  0  0  0  0
   46.1958  -43.4037    5.9891 C   0  0  0  0  0  0  0  0  0  0  0  0
   46.6976  -42.4108    6.8017 O   0  0  0  0  0  0  0  0  0  0  0  0
   47.2458  -42.8398    7.9798 C   0  0  0  0  0  0  0  0  0  0  0  0
   46.1926  -43.4622    8.8711 C   0  0  0  0  0  0  0  0  0  0  0  0
   43.5131  -44.0774    9.7178 N   0  0  0  0  0  0  0  0  0  0  0  0
   42.2715  -44.3577   10.1474 C   0  0  0  0  0  0  0  0  0  0  0  0
   38.2388  -46.1025    7.6805 C   0  0  0  0  0  0  0  0  0  0  0  0
  1  2  1  0  0  0  0
  2  3  1  0  0  0  0
  3  4  1  0  0  0  0
  4  5  2  0  0  0  0
  4  6  1  0  0  0  0
  6  7  2  0  0  0  0
  7  8  1  0  0  0  0
  8  9  2  0  0  0  0
  9 10  1  0  0  0  0
 10 11  1  0  0  0  0
 10 25  2  0  0  0  0
 11 12  1  0  0  0  0
 12 13  1  0  0  0  0
 13 14  2  0  0  0  0
 14 15  1  0  0  0  0
 15 16  2  0  0  0  0
 16 17  1  0  0  0  0
 16 23  1  0  0  0  0
 17 18  1  0  0  0  0
 18 19  1  0  0  0  0
 19 20  1  0  0  0  0
 20 21  1  0  0  0  0
 21 22  1  0  0  0  0
 22 17  1  0  0  0  0
 23 24  2  0  0  0  0
 24 13  1  0  0  0  0
 25  6  1  0  0  0  0
M  END
>  <CHROM.1>
161.13732092,-159.03118631,156.04717136,-96.79397903,44.04824864,1.10414698
41.01567520,-44.93815795,7.53953294,3.02821023,0.23274374,2.69633061

>  <Name>
design_14

>  <RI>
0

>  <Rbt.Current_Directory>
/home/ziqiaoxu/icml18-jtnn/VAEdesign

>  <Rbt.Executable>
rbdock ($Id: //depot/dev/client3/rdock/2013.1/src/exe/rbdock.cxx#4 $)

>  <Rbt.Library>
libRbt.so (2013.1, Build901 2013/11/27)

>  <Rbt.Parameter_File>
/export/apps/rDock/src/rDock_2013.1_src//data/scripts/dock.prm

>  <Rbt.Receptor>
/home/ziqiaoxu/icml18-jtnn/VAEdesign/targets/RdRp-SARS-CoV-2/pocket_docking.prm

>  <SCORE>
-18.426

>  <SCORE.INTER>
-18.9741

>  <SCORE.INTER.CONST>
1

>  <SCORE.INTER.POLAR>
-1.39309

>  <SCORE.INTER.REPUL>
0

>  <SCORE.INTER.ROT>
6

>  <SCORE.INTER.VDW>
-25.6376

>  <SCORE.INTER.norm>
-0.758964

>  <SCORE.INTRA>
0.548057

>  <SCORE.INTRA.DIHEDRAL>
3.75407

>  <SCORE.INTRA.DIHEDRAL.0>
4.32023

>  <SCORE.INTRA.POLAR>
0

>  <SCORE.INTRA.POLAR.0>
0

>  <SCORE.INTRA.REPUL>
0

>  <SCORE.INTRA.REPUL.0>
0

>  <SCORE.INTRA.VDW>
-1.32898

>  <SCORE.INTRA.VDW.0>
1.6181

>  <SCORE.INTRA.norm>
0.0219223

>  <SCORE.RESTR>
0

>  <SCORE.RESTR.CAVITY>
0

>  <SCORE.RESTR.norm>
0

>  <SCORE.SYSTEM>
0

>  <SCORE.SYSTEM.CONST>
0

>  <SCORE.SYSTEM.DIHEDRAL>
0

>  <SCORE.SYSTEM.norm>
0

>  <SCORE.heavy>
25

>  <SCORE.norm>
-0.737042

$$$$
design_13
 OpenBabel05252019093D

 25 26  0  0  0  0  0  0  0  0999 V2000
   43.7842  -46.2045   -0.4535 C   0  0  0  0  0  0  0  0  0  0  0  0
   45.1375  -46.4620    0.1642 C   0  0  0  0  0  0  0  0  0  0  0  0
   46.1417  -47.0638   -0.5562 C   0  0  0  0  0  0  0  0  0  0  0  0
   47.3578  -47.3254    0.0590 C   0  0  0  0  0  0  0  0  0  0  0  0
   47.5926  -47.0048    1.3634 C   0  0  0  0  0  0  0  0  0  0  0  0
   46.5805  -46.3854    2.1290 C   0  0  0  0  0  0  0  0  0  0  0  0
   46.8701  -46.0479    3.5033 C   0  0  0  0  0  0  0  0  0  0  0  0
   47.4732  -46.9261    4.1717 O   0  0  0  0  0  0  0  0  0  0  0  0
   46.5199  -44.8152    4.0970 N   0  0  0  0  0  0  0  0  0  0  0  0
   46.8981  -44.6808    5.4912 C   0  0  0  0  0  0  0  0  0  0  0  0
   45.7425  -44.6281    6.4084 C   0  0  0  0  0  0  0  0  0  0  0  0
   45.8934  -43.9712    7.4609 O   0  0  0  0  0  0  0  0  0  0  0  0
   44.5798  -45.3144    6.0384 N   0  0  0  0  0  0  0  0  0  0  0  0
   43.3964  -45.4352    6.7735 C   0  0  0  0  0  0  0  0  0  0  0  0
   43.2454  -44.9382    8.0273 C   0  0  0  0  0  0  0  0  0  0  0  0
   42.0451  -45.1748    8.7211 C   0  0  0  0  0  0  0  0  0  0  0  0
   41.0055  -45.8919    8.1883 C   0  0  0  0  0  0  0  0  0  0  0  0
   39.5928  -46.1820    9.1851 S   0  0  0  0  0  0  0  0  0  0  0  0
   40.1836  -46.0742   10.8350 N   0  0  0  0  0  0  0  0  0  0  0  0
   38.6317  -45.0741    8.9973 O   0  0  0  0  0  0  0  0  0  0  0  0
   39.0034  -47.5231    8.9323 O   0  0  0  0  0  0  0  0  0  0  0  0
   41.1500  -46.3951    6.9181 C   0  0  0  0  0  0  0  0  0  0  0  0
   42.3189  -46.1689    6.2313 C   0  0  0  0  0  0  0  0  0  0  0  0
   45.3870  -46.1381    1.4906 C   0  0  0  0  0  0  0  0  0  0  0  0
   44.2541  -45.5116    2.2306 C   0  0  0  0  0  0  0  0  0  0  0  0
  1  2  1  0  0  0  0
  2  3  2  0  0  0  0
  3  4  1  0  0  0  0
  4  5  2  0  0  0  0
  5  6  1  0  0  0  0
  6  7  1  0  0  0  0
  6 24  2  0  0  0  0
  7  8  2  0  0  0  0
  7  9  1  0  0  0  0
  9 10  1  0  0  0  0
 10 11  1  0  0  0  0
 11 12  2  0  0  0  0
 11 13  1  0  0  0  0
 13 14  1  0  0  0  0
 14 15  2  0  0  0  0
 15 16  1  0  0  0  0
 16 17  2  0  0  0  0
 17 18  1  0  0  0  0
 17 22  1  0  0  0  0
 18 19  1  0  0  0  0
 18 20  2  0  0  0  0
 18 21  2  0  0  0  0
 22 23  2  0  0  0  0
 23 14  1  0  0  0  0
 24 25  1  0  0  0  0
 24  2  1  0  0  0  0
M  END
>  <CHROM.1>
-43.88693188,-112.58184706,-150.14221866,-3.79292665,-24.61856312,167.81720027
43.72877473,-45.89927900,5.37038400,0.87149882,-0.24063318,-1.82141024

>  <Name>
design_13

>  <RI>
0

>  <Rbt.Current_Directory>
/home/ziqiaoxu/icml18-jtnn/VAEdesign

>  <Rbt.Executable>
rbdock ($Id: //depot/dev/client3/rdock/2013.1/src/exe/rbdock.cxx#4 $)

>  <Rbt.Library>
libRbt.so (2013.1, Build901 2013/11/27)

>  <Rbt.Parameter_File>
/export/apps/rDock/src/rDock_2013.1_src//data/scripts/dock.prm

>  <Rbt.Receptor>
/home/ziqiaoxu/icml18-jtnn/VAEdesign/targets/RdRp-SARS-CoV-2/pocket_docking.prm

>  <SCORE>
-23.272

>  <SCORE.INTER>
-22.1056

>  <SCORE.INTER.CONST>
1

>  <SCORE.INTER.POLAR>
-2.31443

>  <SCORE.INTER.REPUL>
0

>  <SCORE.INTER.ROT>
6

>  <SCORE.INTER.VDW>
-25.6365

>  <SCORE.INTER.norm>
-0.884222

>  <SCORE.INTRA>
-1.16649

>  <SCORE.INTRA.DIHEDRAL>
-2.4006

>  <SCORE.INTRA.DIHEDRAL.0>
12.9105

>  <SCORE.INTRA.POLAR>
0

>  <SCORE.INTRA.POLAR.0>
0

>  <SCORE.INTRA.REPUL>
0

>  <SCORE.INTRA.REPUL.0>
0

>  <SCORE.INTRA.VDW>
0.0338121

>  <SCORE.INTRA.VDW.0>
-2.02984

>  <SCORE.INTRA.norm>
-0.0466596

>  <SCORE.RESTR>
0

>  <SCORE.RESTR.CAVITY>
0

>  <SCORE.RESTR.norm>
0

>  <SCORE.SYSTEM>
0

>  <SCORE.SYSTEM.CONST>
0

>  <SCORE.SYSTEM.DIHEDRAL>
0

>  <SCORE.SYSTEM.norm>
0

>  <SCORE.heavy>
25

>  <SCORE.norm>
-0.930882

$$$$
design_3
 OpenBabel05252019093D

 22 23  0  0  0  0  0  0  0  0999 V2000
   43.8549  -46.0601   -0.7587 N   0  0  0  0  0  0  0  0  0  0  0  0
   45.0276  -46.4726   -0.0896 C   0  0  0  0  0  0  0  0  0  0  0  0
   45.9789  -47.0461   -0.7152 O   0  0  0  0  0  0  0  0  0  0  0  0
   45.1176  -46.2214    1.3468 C   0  0  0  0  0  0  0  0  0  0  0  0
   44.1704  -45.5203    2.0280 C   0  0  0  0  0  0  0  0  0  0  0  0
   44.2303  -45.2696    3.3778 C   0  0  0  0  0  0  0  0  0  0  0  0
   45.3225  -45.7643    4.0735 C   0  0  0  0  0  0  0  0  0  0  0  0
   45.4119  -45.5253    5.4498 N   0  0  0  0  0  0  0  0  0  0  0  0
   44.7651  -44.3755    6.0382 C   0  0  0  0  0  0  0  0  0  0  0  0
   43.5784  -44.8378    6.7749 C   0  0  0  0  0  0  0  0  0  0  0  0
   43.3568  -44.5351    8.0967 C   0  0  0  0  0  0  0  0  0  0  0  0
   42.2328  -44.9853    8.7571 C   0  0  0  0  0  0  0  0  0  0  0  0
   41.2805  -45.7587    8.1233 C   0  0  0  0  0  0  0  0  0  0  0  0
   39.8458  -46.3356    8.9587 S   0  0  0  0  0  0  0  0  0  0  0  0
   40.1190  -46.1766   10.6423 N   0  0  0  0  0  0  0  0  0  0  0  0
   38.7247  -45.3707    8.6002 O   0  0  0  0  0  0  0  0  0  0  0  0
   39.5288  -47.7285    8.5452 O   0  0  0  0  0  0  0  0  0  0  0  0
   41.5095  -46.0583    6.7971 C   0  0  0  0  0  0  0  0  0  0  0  0
   42.6298  -45.6122    6.1307 C   0  0  0  0  0  0  0  0  0  0  0  0
   46.3000  -46.4805    3.4048 C   0  0  0  0  0  0  0  0  0  0  0  0
   46.2079  -46.7131    2.0503 C   0  0  0  0  0  0  0  0  0  0  0  0
   47.4788  -47.6272    1.2619 Cl  0  0  0  0  0  0  0  0  0  0  0  0
  1  2  1  0  0  0  0
  2  3  2  0  0  0  0
  2  4  1  0  0  0  0
  4  5  2  0  0  0  0
  5  6  1  0  0  0  0
  6  7  2  0  0  0  0
  7  8  1  0  0  0  0
  7 20  1  0  0  0  0
  8  9  1  0  0  0  0
  9 10  1  0  0  0  0
 10 11  2  0  0  0  0
 11 12  1  0  0  0  0
 12 13  2  0  0  0  0
 13 14  1  0  0  0  0
 13 18  1  0  0  0  0
 14 15  1  0  0  0  0
 14 16  2  0  0  0  0
 14 17  2  0  0  0  0
 18 19  2  0  0  0  0
 19 10  1  0  0  0  0
 20 21  2  0  0  0  0
 21 22  1  0  0  0  0
 21  4  1  0  0  0  0
M  END
>  <CHROM.1>
-5.26567455,-26.07581955,106.13190035,125.99386464,-16.39678672,154.80967139
43.45960269,-46.08543234,4.97547689,0.95294829,-0.14833901,-1.76510015

>  <Name>
design_3

>  <RI>
0

>  <Rbt.Current_Directory>
/home/ziqiaoxu/icml18-jtnn/VAEdesign

>  <Rbt.Executable>
rbdock ($Id: //depot/dev/client3/rdock/2013.1/src/exe/rbdock.cxx#4 $)

>  <Rbt.Library>
libRbt.so (2013.1, Build901 2013/11/27)

>  <Rbt.Parameter_File>
/export/apps/rDock/src/rDock_2013.1_src//data/scripts/dock.prm

>  <Rbt.Receptor>
/home/ziqiaoxu/icml18-jtnn/VAEdesign/targets/RdRp-SARS-CoV-2/pocket_docking.prm

>  <SCORE>
-27.2987

>  <SCORE.INTER>
-28.0489

>  <SCORE.INTER.CONST>
1

>  <SCORE.INTER.POLAR>
-4.0635

>  <SCORE.INTER.REPUL>
0

>  <SCORE.INTER.ROT>
6

>  <SCORE.INTER.VDW>
-25.633

>  <SCORE.INTER.norm>
-1.27495

>  <SCORE.INTRA>
0.750174

>  <SCORE.INTRA.DIHEDRAL>
2.87469

>  <SCORE.INTRA.DIHEDRAL.0>
4.99789

>  <SCORE.INTRA.POLAR>
0

>  <SCORE.INTRA.POLAR.0>
0

>  <SCORE.INTRA.REPUL>
0

>  <SCORE.INTRA.REPUL.0>
0

>  <SCORE.INTRA.VDW>
-0.687169

>  <SCORE.INTRA.VDW.0>
2.01975

>  <SCORE.INTRA.norm>
0.0340988

>  <SCORE.RESTR>
0

>  <SCORE.RESTR.CAVITY>
0

>  <SCORE.RESTR.norm>
0

>  <SCORE.SYSTEM>
0

>  <SCORE.SYSTEM.CONST>
0

>  <SCORE.SYSTEM.DIHEDRAL>
0

>  <SCORE.SYSTEM.norm>
0

>  <SCORE.heavy>
22

>  <SCORE.norm>
-1.24085

$$$$
design_13
 OpenBabel05252019093D

 21 22  0  0  0  0  0  0  0  0999 V2000
   35.0268  -41.2284    5.7019 C   0  0  0  0  0  0  0  0  0  0  0  0
   36.3614  -41.7446    6.0820 C   0  0  0  0  0  0  0  0  0  0  0  0
   37.2202  -40.9232    6.4855 O   0  0  0  0  0  0  0  0  0  0  0  0
   36.7049  -43.1567    6.0035 C   0  0  0  0  0  0  0  0  0  0  0  0
   35.8020  -44.1134    5.6044 C   0  0  0  0  0  0  0  0  0  0  0  0
   36.1384  -45.4625    5.5310 C   0  0  0  0  0  0  0  0  0  0  0  0
   37.3908  -45.9159    5.8526 C   0  0  0  0  0  0  0  0  0  0  0  0
   37.8130  -47.2756    5.8018 N   0  0  0  0  0  0  0  0  0  0  0  0
   39.2289  -47.9305    6.4586 S   0  0  0  0  0  0  0  0  0  0  0  0
   38.8286  -49.2747    7.0784 O   0  0  0  0  0  0  0  0  0  0  0  0
   40.2302  -48.3149    5.4015 O   0  0  0  0  0  0  0  0  0  0  0  0
   39.9170  -46.9331    7.6896 C   0  0  0  0  0  0  0  0  0  0  0  0
   41.2136  -46.4747    7.6237 C   0  0  0  0  0  0  0  0  0  0  0  0
   41.7386  -45.6579    8.6322 C   0  0  0  0  0  0  0  0  0  0  0  0
   40.9748  -45.2943    9.7100 C   0  0  0  0  0  0  0  0  0  0  0  0
   41.5411  -44.4164   10.7926 C   0  0  0  0  0  0  0  0  0  0  0  0
   39.6789  -45.7479    9.7832 C   0  0  0  0  0  0  0  0  0  0  0  0
   39.1714  -46.5517    8.7852 C   0  0  0  0  0  0  0  0  0  0  0  0
   37.7659  -47.0040    8.9299 C   0  0  0  0  0  0  0  0  0  0  0  0
   38.3077  -44.9317    6.2599 C   0  0  0  0  0  0  0  0  0  0  0  0
   37.9679  -43.6050    6.3293 C   0  0  0  0  0  0  0  0  0  0  0  0
  1  2  1  0  0  0  0
  2  3  2  0  0  0  0
  2  4  1  0  0  0  0
  4  5  2  0  0  0  0
  5  6  1  0  0  0  0
  6  7  2  0  0  0  0
  7  8  1  0  0  0  0
  7 20  1  0  0  0  0
  8  9  1  0  0  0  0
  9 10  2  0  0  0  0
  9 11  2  0  0  0  0
  9 12  1  0  0  0  0
 12 13  2  0  0  0  0
 13 14  1  0  0  0  0
 14 15  2  0  0  0  0
 15 16  1  0  0  0  0
 15 17  1  0  0  0  0
 17 18  2  0  0  0  0
 18 19  1  0  0  0  0
 18 12  1  0  0  0  0
 20 21  2  0  0  0  0
 21  4  1  0  0  0  0
M  END
>  <CHROM.1>
-1.76732265,-167.32944775,138.90202533,-123.82268404,38.56299051,-45.51997530
7.11057093,-2.51022783,0.74585426,-2.77768675

>  <Name>
design_13

>  <RI>
0

>  <Rbt.Current_Directory>
/home/ziqiaoxu/icml18-jtnn/VAEdesign

>  <Rbt.Executable>
rbdock ($Id: //depot/dev/client3/rdock/2013.1/src/exe/rbdock.cxx#4 $)

>  <Rbt.Library>
libRbt.so (2013.1, Build901 2013/11/27)

>  <Rbt.Parameter_File>
/export/apps/rDock/src/rDock_2013.1_src//data/scripts/dock.prm

>  <Rbt.Receptor>
/home/ziqiaoxu/icml18-jtnn/VAEdesign/targets/RdRp-SARS-CoV-2/pocket_docking.prm

>  <SCORE>
-19.0467

>  <SCORE.INTER>
-16.2323

>  <SCORE.INTER.CONST>
1

>  <SCORE.INTER.POLAR>
0

>  <SCORE.INTER.REPUL>
0

>  <SCORE.INTER.ROT>
4

>  <SCORE.INTER.VDW>
-25.6323

>  <SCORE.INTER.norm>
-0.772967

>  <SCORE.INTRA>
-2.81442

>  <SCORE.INTRA.DIHEDRAL>
-5.97401

>  <SCORE.INTRA.DIHEDRAL.0>
9.00733

>  <SCORE.INTRA.POLAR>
0

>  <SCORE.INTRA.POLAR.0>
0

>  <SCORE.INTRA.REPUL>
0

>  <SCORE.INTRA.REPUL.0>
0

>  <SCORE.INTRA.VDW>
0.172579

>  <SCORE.INTRA.VDW.0>
-1.66629

>  <SCORE.INTRA.norm>
-0.13402

>  <SCORE.RESTR>
0

>  <SCORE.RESTR.CAVITY>
0

>  <SCORE.RESTR.norm>
0

>  <SCORE.SYSTEM>
0

>  <SCORE.SYSTEM.CONST>
0

>  <SCORE.SYSTEM.DIHEDRAL>
0

>  <SCORE.SYSTEM.norm>
0

>  <SCORE.heavy>
21

>  <SCORE.norm>
-0.906987

$$$$
design_10
 OpenBabel05252019093D

 25 26  0  0  0  0  0  0  0  0999 V2000
   40.1279  -46.3958   10.5551 N   0  0  0  0  0  0  0  0  0  0  0  0
   40.7460  -45.9256    9.3339 C   0  0  0  0  0  0  0  0  0  0  0  0
   41.5247  -44.9668    9.4746 O   0  0  0  0  0  0  0  0  0  0  0  0
   40.4503  -46.5524    8.0739 C   0  0  0  0  0  0  0  0  0  0  0  0
   39.3095  -47.3889    8.0428 C   0  0  0  0  0  0  0  0  0  0  0  0
   38.9456  -48.0961    6.9331 C   0  0  0  0  0  0  0  0  0  0  0  0
   39.7338  -47.9725    5.8184 C   0  0  0  0  0  0  0  0  0  0  0  0
   40.8631  -47.1512    5.8270 C   0  0  0  0  0  0  0  0  0  0  0  0
   41.2449  -46.4205    6.9617 C   0  0  0  0  0  0  0  0  0  0  0  0
   42.3208  -45.5390    6.9182 N   0  0  0  0  0  0  0  0  0  0  0  0
   43.1111  -45.2547    5.7858 C   0  0  0  0  0  0  0  0  0  0  0  0
   42.9770  -45.7548    4.6486 O   0  0  0  0  0  0  0  0  0  0  0  0
   44.2489  -44.2458    5.9200 C   0  0  0  0  0  0  0  0  0  0  0  0
   45.5476  -45.0080    6.0741 C   0  0  0  0  0  0  0  0  0  0  0  0
   46.4897  -44.7392    4.9373 C   0  0  0  0  0  0  0  0  0  0  0  0
   45.8560  -45.0047    3.6819 N   0  0  0  0  0  0  0  0  0  0  0  0
   46.1262  -46.0859    2.8373 C   0  0  0  0  0  0  0  0  0  0  0  0
   46.9973  -46.9380    3.1515 O   0  0  0  0  0  0  0  0  0  0  0  0
   45.3907  -46.2258    1.5811 C   0  0  0  0  0  0  0  0  0  0  0  0
   44.0741  -45.8255    1.5025 C   0  0  0  0  0  0  0  0  0  0  0  0
   43.3646  -45.9460    0.3387 C   0  0  0  0  0  0  0  0  0  0  0  0
   43.9521  -46.4723   -0.7857 C   0  0  0  0  0  0  0  0  0  0  0  0
   45.2647  -46.8708   -0.7055 C   0  0  0  0  0  0  0  0  0  0  0  0
   45.9828  -46.7542    0.4543 C   0  0  0  0  0  0  0  0  0  0  0  0
   47.6543  -47.2709    0.5258 Cl  0  0  0  0  0  0  0  0  0  0  0  0
  1  2  1  0  0  0  0
  2  3  2  0  0  0  0
  2  4  1  0  0  0  0
  4  5  2  0  0  0  0
  5  6  1  0  0  0  0
  6  7  2  0  0  0  0
  7  8  1  0  0  0  0
  8  9  2  0  0  0  0
  9 10  1  0  0  0  0
  9  4  1  0  0  0  0
 10 11  1  0  0  0  0
 11 12  2  0  0  0  0
 11 13  1  0  0  0  0
 13 14  1  0  0  0  0
 14 15  1  0  0  0  0
 15 16  1  0  0  0  0
 16 17  1  0  0  0  0
 17 18  2  0  0  0  0
 17 19  1  0  0  0  0
 19 20  2  0  0  0  0
 20 21  1  0  0  0  0
 21 22  2  0  0  0  0
 22 23  1  0  0  0  0
 23 24  2  0  0  0  0
 24 25  1  0  0  0  0
 24 19  1  0  0  0  0
M  END
>  <CHROM.1>
15.40518466,-174.01535869,100.10471488,117.18400868,-54.29537110,-107.90583887
-33.95072818,43.57531589,-46.22829224,4.54151089,-2.26608076,-0.33987331
-1.85948818

>  <Name>
design_10

>  <RI>
0

>  <Rbt.Current_Directory>
/home/ziqiaoxu/icml18-jtnn/VAEdesign

>  <Rbt.Executable>
rbdock ($Id: //depot/dev/client3/rdock/2013.1/src/exe/rbdock.cxx#4 $)

>  <Rbt.Library>
libRbt.so (2013.1, Build901 2013/11/27)

>  <Rbt.Parameter_File>
/export/apps/rDock/src/rDock_2013.1_src//data/scripts/dock.prm

>  <Rbt.Receptor>
/home/ziqiaoxu/icml18-jtnn/VAEdesign/targets/RdRp-SARS-CoV-2/pocket_docking.prm

>  <SCORE>
-22.4329

>  <SCORE.INTER>
-19.4904

>  <SCORE.INTER.CONST>
1

>  <SCORE.INTER.POLAR>
-1.98369

>  <SCORE.INTER.REPUL>
0.096825

>  <SCORE.INTER.ROT>
7

>  <SCORE.INTER.VDW>
-25.63

>  <SCORE.INTER.norm>
-0.779617

>  <SCORE.INTRA>
-2.94248

>  <SCORE.INTRA.DIHEDRAL>
-2.47221

>  <SCORE.INTRA.DIHEDRAL.0>
16.6152

>  <SCORE.INTRA.POLAR>
0

>  <SCORE.INTRA.POLAR.0>
0

>  <SCORE.INTRA.REPUL>
0

>  <SCORE.INTRA.REPUL.0>
0

>  <SCORE.INTRA.VDW>
-1.70637

>  <SCORE.INTRA.VDW.0>
0.166486

>  <SCORE.INTRA.norm>
-0.117699

>  <SCORE.RESTR>
0

>  <SCORE.RESTR.CAVITY>
0

>  <SCORE.RESTR.norm>
0

>  <SCORE.SYSTEM>
0

>  <SCORE.SYSTEM.CONST>
0

>  <SCORE.SYSTEM.DIHEDRAL>
0

>  <SCORE.SYSTEM.norm>
0

>  <SCORE.heavy>
25

>  <SCORE.norm>
-0.897316

$$$$
design_9
 OpenBabel05252019093D

 24 25  0  0  0  0  0  0  0  0999 V2000
   39.0378  -48.9941    6.9528 C   0  0  0  0  0  0  0  0  0  0  0  0
   39.6499  -47.7708    7.5862 C   0  0  0  0  0  0  0  0  0  0  0  0
   40.7661  -47.1620    7.0416 C   0  0  0  0  0  0  0  0  0  0  0  0
   41.3384  -46.0361    7.6202 C   0  0  0  0  0  0  0  0  0  0  0  0
   40.8015  -45.4897    8.7666 C   0  0  0  0  0  0  0  0  0  0  0  0
   41.4980  -44.0946    9.5420 S   0  0  0  0  0  0  0  0  0  0  0  0
   42.0795  -44.5743   10.8417 O   0  0  0  0  0  0  0  0  0  0  0  0
   42.6583  -43.6436    8.6863 O   0  0  0  0  0  0  0  0  0  0  0  0
   40.4232  -42.8193    9.6934 N   0  0  0  0  0  0  0  0  0  0  0  0
   39.6907  -42.4106    8.5447 C   0  0  0  0  0  0  0  0  0  0  0  0
   38.8822  -41.1440    8.8385 C   0  0  0  0  0  0  0  0  0  0  0  0
   39.7985  -39.9384    8.6752 C   0  0  0  0  0  0  0  0  0  0  0  0
   40.4834  -39.6343    9.7010 O   0  0  0  0  0  0  0  0  0  0  0  0
   39.8614  -39.2486    7.4929 N   0  0  0  0  0  0  0  0  0  0  0  0
   39.9228  -38.5754    6.3396 C   0  0  0  0  0  0  0  0  0  0  0  0
   39.8558  -37.2214    6.1402 C   0  0  0  0  0  0  0  0  0  0  0  0
   40.0374  -36.5774    4.9275 C   0  0  0  0  0  0  0  0  0  0  0  0
   40.3063  -37.3309    3.8294 C   0  0  0  0  0  0  0  0  0  0  0  0
   40.5005  -36.6215    2.5418 C   0  0  0  0  0  0  0  0  0  0  0  0
   40.3892  -38.6863    3.9372 C   0  0  0  0  0  0  0  0  0  0  0  0
   40.2070  -39.3082    5.1354 C   0  0  0  0  0  0  0  0  0  0  0  0
   40.2578  -40.7709    5.2750 C   0  0  0  0  0  0  0  0  0  0  0  0
   39.6900  -46.0949    9.3089 C   0  0  0  0  0  0  0  0  0  0  0  0
   39.1193  -47.2200    8.7302 C   0  0  0  0  0  0  0  0  0  0  0  0
  1  2  1  0  0  0  0
  2  3  2  0  0  0  0
  3  4  1  0  0  0  0
  4  5  2  0  0  0  0
  5  6  1  0  0  0  0
  5 23  1  0  0  0  0
  6  7  2  0  0  0  0
  6  8  2  0  0  0  0
  6  9  1  0  0  0  0
  9 10  1  0  0  0  0
 10 11  1  0  0  0  0
 11 12  1  0  0  0  0
 12 13  2  0  0  0  0
 12 14  1  0  0  0  0
 14 15  1  0  0  0  0
 15 16  2  0  0  0  0
 16 17  1  0  0  0  0
 17 18  2  0  0  0  0
 18 19  1  0  0  0  0
 18 20  1  0  0  0  0
 20 21  2  0  0  0  0
 21 22  1  0  0  0  0
 21 15  1  0  0  0  0
 23 24  2  0  0  0  0
 24  2  1  0  0  0  0
M  END
>  <CHROM.1>
-110.99050993,-49.69897795,-173.78719525,83.00487680,-85.52112718,-29.96948480
40.39673181,-42.25301635,7.51745869,1.38912384,1.39109377,2.92888262

>  <Name>
design_9

>  <RI>
0

>  <Rbt.Current_Directory>
/home/ziqiaoxu/icml18-jtnn/VAEdesign

>  <Rbt.Executable>
rbdock ($Id: //depot/dev/client3/rdock/2013.1/src/exe/rbdock.cxx#4 $)

>  <Rbt.Library>
libRbt.so (2013.1, Build901 2013/11/27)

>  <Rbt.Parameter_File>
/export/apps/rDock/src/rDock_2013.1_src//data/scripts/dock.prm

>  <Rbt.Receptor>
/home/ziqiaoxu/icml18-jtnn/VAEdesign/targets/RdRp-SARS-CoV-2/pocket_docking.prm

>  <SCORE>
-17.0069

>  <SCORE.INTER>
-15.948

>  <SCORE.INTER.CONST>
1

>  <SCORE.INTER.POLAR>
-0.6239

>  <SCORE.INTER.REPUL>
0.0804211

>  <SCORE.INTER.ROT>
6

>  <SCORE.INTER.VDW>
-25.6289

>  <SCORE.INTER.norm>
-0.664502

>  <SCORE.INTRA>
-1.05889

>  <SCORE.INTRA.DIHEDRAL>
3.66991

>  <SCORE.INTRA.DIHEDRAL.0>
7.59776

>  <SCORE.INTRA.POLAR>
0

>  <SCORE.INTRA.POLAR.0>
0

>  <SCORE.INTRA.REPUL>
0

>  <SCORE.INTRA.REPUL.0>
0

>  <SCORE.INTRA.VDW>
-2.89385

>  <SCORE.INTRA.VDW.0>
0.972885

>  <SCORE.INTRA.norm>
-0.0441204

>  <SCORE.RESTR>
0

>  <SCORE.RESTR.CAVITY>
0

>  <SCORE.RESTR.norm>
0

>  <SCORE.SYSTEM>
0

>  <SCORE.SYSTEM.CONST>
0

>  <SCORE.SYSTEM.DIHEDRAL>
0

>  <SCORE.SYSTEM.norm>
0

>  <SCORE.heavy>
24

>  <SCORE.norm>
-0.708622

$$$$
design_3
 OpenBabel05252019093D

 21 23  0  0  0  0  0  0  0  0999 V2000
   39.3999  -47.8708    7.4171 C   0  0  0  0  0  0  0  0  0  0  0  0
   40.1356  -46.8707    8.2142 C   0  0  0  0  0  0  0  0  0  0  0  0
   39.5513  -46.4043    9.3805 C   0  0  0  0  0  0  0  0  0  0  0  0
   40.2215  -45.4798   10.1260 C   0  0  0  0  0  0  0  0  0  0  0  0
   41.4764  -45.0054    9.7284 C   0  0  0  0  0  0  0  0  0  0  0  0
   42.0330  -45.4850    8.5671 C   0  0  0  0  0  0  0  0  0  0  0  0
   43.3231  -45.0067    8.1447 C   0  0  0  0  0  0  0  0  0  0  0  0
   43.9031  -44.1552    8.8707 O   0  0  0  0  0  0  0  0  0  0  0  0
   43.9635  -45.4426    6.9660 N   0  0  0  0  0  0  0  0  0  0  0  0
   45.2630  -44.9452    6.5588 C   0  0  0  0  0  0  0  0  0  0  0  0
   45.5814  -45.3343    5.1574 C   0  0  0  0  0  0  0  0  0  0  0  0
   44.7519  -45.4113    4.1062 N   0  0  0  0  0  0  0  0  0  0  0  0
   45.4205  -45.7935    3.0112 C   0  0  0  0  0  0  0  0  0  0  0  0
   44.8275  -45.9828    1.6737 C   0  0  0  0  0  0  0  0  0  0  0  0
   45.4540  -46.4565    0.5550 C   0  0  0  0  0  0  0  0  0  0  0  0
   44.7226  -46.5492   -0.5659 C   0  0  0  0  0  0  0  0  0  0  0  0
   43.4090  -46.1616   -0.4958 C   0  0  0  0  0  0  0  0  0  0  0  0
   43.2440  -45.6820    1.1323 S   0  0  0  0  0  0  0  0  0  0  0  0
   46.6886  -45.9592    3.3784 N   0  0  0  0  0  0  0  0  0  0  0  0
   46.7882  -45.6810    4.6798 N   0  0  0  0  0  0  0  0  0  0  0  0
   41.3341  -46.4010    7.8581 N   0  0  0  0  0  0  0  0  0  0  0  0
  1  2  1  0  0  0  0
  2  3  2  0  0  0  0
  3  4  1  0  0  0  0
  4  5  2  0  0  0  0
  5  6  1  0  0  0  0
  6  7  1  0  0  0  0
  6 21  2  0  0  0  0
  7  8  2  0  0  0  0
  7  9  1  0  0  0  0
  9 10  1  0  0  0  0
 10 11  1  0  0  0  0
 11 12  2  0  0  0  0
 12 13  1  0  0  0  0
 13 14  1  0  0  0  0
 13 19  2  0  0  0  0
 14 15  2  0  0  0  0
 15 16  1  0  0  0  0
 16 17  2  0  0  0  0
 17 18  1  0  0  0  0
 18 14  1  0  0  0  0
 19 20  1  0  0  0  0
 20 11  1  0  0  0  0
 21  2  1  0  0  0  0
M  END
>  <CHROM.1>
0.19628198,-167.87219600,37.19949757,-175.25369034,43.41162433,-45.80097873
5.22143701,2.03018739,0.28820196,1.40962868

>  <Name>
design_3

>  <RI>
0

>  <Rbt.Current_Directory>
/home/ziqiaoxu/icml18-jtnn/VAEdesign

>  <Rbt.Executable>
rbdock ($Id: //depot/dev/client3/rdock/2013.1/src/exe/rbdock.cxx#4 $)

>  <Rbt.Library>
libRbt.so (2013.1, Build901 2013/11/27)

>  <Rbt.Parameter_File>
/export/apps/rDock/src/rDock_2013.1_src//data/scripts/dock.prm

>  <Rbt.Receptor>
/home/ziqiaoxu/icml18-jtnn/VAEdesign/targets/RdRp-SARS-CoV-2/pocket_docking.prm

>  <SCORE>
-16.9268

>  <SCORE.INTER>
-17.8321

>  <SCORE.INTER.CONST>
1

>  <SCORE.INTER.POLAR>
-0.471536

>  <SCORE.INTER.REPUL>
0

>  <SCORE.INTER.ROT>
4

>  <SCORE.INTER.VDW>
-25.6288

>  <SCORE.INTER.norm>
-0.849146

>  <SCORE.INTRA>
0.905244

>  <SCORE.INTRA.DIHEDRAL>
0.0750981

>  <SCORE.INTRA.DIHEDRAL.0>
2.53161

>  <SCORE.INTRA.POLAR>
0

>  <SCORE.INTRA.POLAR.0>
0

>  <SCORE.INTRA.REPUL>
0

>  <SCORE.INTRA.REPUL.0>
0

>  <SCORE.INTRA.VDW>
0.867695

>  <SCORE.INTRA.VDW.0>
-1.90242

>  <SCORE.INTRA.norm>
0.0431069

>  <SCORE.RESTR>
0

>  <SCORE.RESTR.CAVITY>
0

>  <SCORE.RESTR.norm>
0

>  <SCORE.SYSTEM>
0

>  <SCORE.SYSTEM.CONST>
0

>  <SCORE.SYSTEM.DIHEDRAL>
0

>  <SCORE.SYSTEM.norm>
0

>  <SCORE.heavy>
21

>  <SCORE.norm>
-0.806039

$$$$
design_3
 OpenBabel05252019093D

 24 25  0  0  0  0  0  0  0  0999 V2000
   39.7561  -41.8810   11.5324 C   0  0  0  0  0  0  0  0  0  0  0  0
   39.3939  -41.6546   10.0744 C   0  0  1  0  0  0  0  0  0  0  0  0
   40.0393  -40.4972    9.6551 O   0  0  0  0  0  0  0  0  0  0  0  0
   39.8844  -39.8048    8.4894 C   0  0  0  0  0  0  0  0  0  0  0  0
   40.6696  -38.6930    8.2606 C   0  0  0  0  0  0  0  0  0  0  0  0
   40.5861  -37.9265    7.1196 C   0  0  0  0  0  0  0  0  0  0  0  0
   39.6575  -38.3042    6.1565 C   0  0  0  0  0  0  0  0  0  0  0  0
   39.5225  -37.5388    4.9480 C   0  0  0  0  0  0  0  0  0  0  0  0
   39.4135  -36.9467    3.9771 N   0  0  0  0  0  0  0  0  0  0  0  0
   38.8530  -39.4175    6.3558 C   0  0  0  0  0  0  0  0  0  0  0  0
   38.9522  -40.1706    7.5032 C   0  0  0  0  0  0  0  0  0  0  0  0
   39.8300  -42.8139    9.2349 C   0  0  0  0  0  0  0  0  0  0  0  0
   40.5900  -42.5531    8.2936 O   0  0  0  0  0  0  0  0  0  0  0  0
   39.4114  -44.1263    9.4838 N   0  0  0  0  0  0  0  0  0  0  0  0
   39.6563  -45.3621    8.8679 C   0  0  0  0  0  0  0  0  0  0  0  0
   38.6429  -46.1107    8.1291 C   0  0  0  0  0  0  0  0  0  0  0  0
   39.4589  -47.2069    7.3520 C   0  0  0  0  0  0  0  0  0  0  0  0
   37.7251  -46.9365    9.0330 C   0  0  0  0  0  0  0  0  0  0  0  0
   37.8474  -45.4862    7.0886 C   0  0  0  0  0  0  0  0  0  0  0  0
   36.8157  -46.1420    6.4438 C   0  0  0  0  0  0  0  0  0  0  0  0
   36.0290  -45.5241    5.4736 C   0  0  0  0  0  0  0  0  0  0  0  0
   36.2664  -44.2509    5.1404 N   0  0  0  0  0  0  0  0  0  0  0  0
   37.2541  -43.5612    5.7300 C   0  0  0  0  0  0  0  0  0  0  0  0
   38.0485  -44.1771    6.7076 C   0  0  0  0  0  0  0  0  0  0  0  0
  2  1  1  1  0  0  0
  2  3  1  0  0  0  0
  2 12  1  0  0  0  0
  3  4  1  0  0  0  0
  4  5  2  0  0  0  0
  5  6  1  0  0  0  0
  6  7  2  0  0  0  0
  7  8  1  0  0  0  0
  7 10  1  0  0  0  0
  8  9  3  0  0  0  0
 10 11  2  0  0  0  0
 11  4  1  0  0  0  0
 12 13  2  0  0  0  0
 12 14  1  0  0  0  0
 14 15  1  0  0  0  0
 15 16  1  0  0  0  0
 16 17  1  0  0  0  0
 16 18  1  0  0  0  0
 16 19  1  0  0  0  0
 19 20  2  0  0  0  0
 20 21  1  0  0  0  0
 21 22  2  0  0  0  0
 22 23  1  0  0  0  0
 23 24  2  0  0  0  0
 24 19  1  0  0  0  0
M  END
>  <CHROM.1>
-170.73443865,-177.87031418,-123.13424207,-110.88671536,166.61180808,-175.04542730
38.94666773,-42.44070620,7.60748761,-1.07557352,1.04836274,2.59269759

>  <Name>
design_3

>  <RI>
0

>  <Rbt.Current_Directory>
/home/ziqiaoxu/icml18-jtnn/VAEdesign

>  <Rbt.Executable>
rbdock ($Id: //depot/dev/client3/rdock/2013.1/src/exe/rbdock.cxx#4 $)

>  <Rbt.Library>
libRbt.so (2013.1, Build901 2013/11/27)

>  <Rbt.Parameter_File>
/export/apps/rDock/src/rDock_2013.1_src//data/scripts/dock.prm

>  <Rbt.Receptor>
/home/ziqiaoxu/icml18-jtnn/VAEdesign/targets/RdRp-SARS-CoV-2/pocket_docking.prm

>  <SCORE>
-24.0627

>  <SCORE.INTER>
-19.1885

>  <SCORE.INTER.CONST>
1

>  <SCORE.INTER.POLAR>
-1.45893

>  <SCORE.INTER.REPUL>
0

>  <SCORE.INTER.ROT>
6

>  <SCORE.INTER.VDW>
-25.6282

>  <SCORE.INTER.norm>
-0.799522

>  <SCORE.INTRA>
-4.87417

>  <SCORE.INTRA.DIHEDRAL>
-4.17179

>  <SCORE.INTRA.DIHEDRAL.0>
8.08565

>  <SCORE.INTRA.POLAR>
0

>  <SCORE.INTRA.POLAR.0>
0

>  <SCORE.INTRA.REPUL>
0

>  <SCORE.INTRA.REPUL.0>
0

>  <SCORE.INTRA.VDW>
-2.78827

>  <SCORE.INTRA.VDW.0>
4.01784

>  <SCORE.INTRA.norm>
-0.20309

>  <SCORE.RESTR>
0

>  <SCORE.RESTR.CAVITY>
0

>  <SCORE.RESTR.norm>
0

>  <SCORE.SYSTEM>
0

>  <SCORE.SYSTEM.CONST>
0

>  <SCORE.SYSTEM.DIHEDRAL>
0

>  <SCORE.SYSTEM.norm>
0

>  <SCORE.heavy>
24

>  <SCORE.norm>
-1.00261

$$$$
design_18
 OpenBabel05252019093D

 24 25  0  0  0  0  0  0  0  0999 V2000
   41.0902  -44.4479    2.9474 C   0  0  0  0  0  0  0  0  0  0  0  0
   40.0346  -44.5984    3.7064 C   0  0  0  0  0  0  0  0  0  0  0  0
   39.0888  -45.7506    3.5815 C   0  0  0  0  0  0  0  0  0  0  0  0
   38.9894  -46.4037    4.8628 N   0  0  0  0  0  0  0  0  0  0  0  0
   37.8259  -46.2137    5.6617 C   0  0  0  0  0  0  0  0  0  0  0  0
   37.4467  -44.7989    5.8501 C   0  0  0  0  0  0  0  0  0  0  0  0
   36.1690  -44.4275    5.4873 C   0  0  0  0  0  0  0  0  0  0  0  0
   35.7253  -43.1123    5.6307 C   0  0  0  0  0  0  0  0  0  0  0  0
   36.5678  -42.1446    6.1452 C   0  0  0  0  0  0  0  0  0  0  0  0
   36.1287  -40.7727    6.3030 C   0  0  0  0  0  0  0  0  0  0  0  0
   35.7654  -39.6834    6.4425 N   0  0  0  0  0  0  0  0  0  0  0  0
   37.8389  -42.5401    6.5001 C   0  0  0  0  0  0  0  0  0  0  0  0
   38.2899  -43.8357    6.3637 C   0  0  0  0  0  0  0  0  0  0  0  0
   40.0420  -47.2237    5.3142 C   0  0  0  0  0  0  0  0  0  0  0  0
   41.0589  -47.3798    4.5971 O   0  0  0  0  0  0  0  0  0  0  0  0
   40.0178  -47.9309    6.6200 C   0  0  0  0  0  0  0  0  0  0  0  0
   40.2443  -47.0346    7.7252 N   0  0  0  0  0  0  0  0  0  0  0  0
   41.3112  -46.2647    7.8019 N   0  0  0  0  0  0  0  0  0  0  0  0
   41.5500  -45.4229    8.8137 C   0  0  0  0  0  0  0  0  0  0  0  0
   42.7742  -44.5867    8.8317 C   0  0  0  0  0  0  0  0  0  0  0  0
   40.6228  -45.3658    9.8258 C   0  0  0  0  0  0  0  0  0  0  0  0
   39.4846  -46.1726    9.7654 C   0  0  0  0  0  0  0  0  0  0  0  0
   39.3247  -46.9983    8.6987 C   0  0  0  0  0  0  0  0  0  0  0  0
   38.2797  -47.7299    8.6569 O   0  0  0  0  0  0  0  0  0  0  0  0
  1  2  2  0  0  0  0
  2  3  1  0  0  0  0
  3  4  1  0  0  0  0
  4  5  1  0  0  0  0
  4 14  1  0  0  0  0
  5  6  1  0  0  0  0
  6  7  2  0  0  0  0
  7  8  1  0  0  0  0
  8  9  2  0  0  0  0
  9 10  1  0  0  0  0
  9 12  1  0  0  0  0
 10 11  3  0  0  0  0
 12 13  2  0  0  0  0
 13  6  1  0  0  0  0
 14 15  2  0  0  0  0
 14 16  1  0  0  0  0
 16 17  1  0  0  0  0
 17 18  1  0  0  0  0
 18 19  2  0  0  0  0
 19 20  1  0  0  0  0
 19 21  1  0  0  0  0
 21 22  2  0  0  0  0
 22 23  1  0  0  0  0
 23 24  2  0  0  0  0
 23 17  1  0  0  0  0
M  END
>  <CHROM.1>
124.46707976,104.73256460,-50.42758048,124.31694965,-74.73767891,-55.69409632
39.03916246,-45.09850946,6.49571960,-2.98290367,-0.86779333,1.41452498

>  <Name>
design_18

>  <RI>
0

>  <Rbt.Current_Directory>
/home/ziqiaoxu/icml18-jtnn/VAEdesign

>  <Rbt.Executable>
rbdock ($Id: //depot/dev/client3/rdock/2013.1/src/exe/rbdock.cxx#4 $)

>  <Rbt.Library>
libRbt.so (2013.1, Build901 2013/11/27)

>  <Rbt.Parameter_File>
/export/apps/rDock/src/rDock_2013.1_src//data/scripts/dock.prm

>  <Rbt.Receptor>
/home/ziqiaoxu/icml18-jtnn/VAEdesign/targets/RdRp-SARS-CoV-2/pocket_docking.prm

>  <SCORE>
-15.4596

>  <SCORE.INTER>
-14.2272

>  <SCORE.INTER.CONST>
1

>  <SCORE.INTER.POLAR>
0

>  <SCORE.INTER.REPUL>
0

>  <SCORE.INTER.ROT>
6

>  <SCORE.INTER.VDW>
-25.6272

>  <SCORE.INTER.norm>
-0.592801

>  <SCORE.INTRA>
-1.2324

>  <SCORE.INTRA.DIHEDRAL>
0.0410401

>  <SCORE.INTRA.DIHEDRAL.0>
6.85568

>  <SCORE.INTRA.POLAR>
0

>  <SCORE.INTRA.POLAR.0>
0

>  <SCORE.INTRA.REPUL>
0

>  <SCORE.INTRA.REPUL.0>
0

>  <SCORE.INTRA.VDW>
-1.25292

>  <SCORE.INTRA.VDW.0>
-2.49003

>  <SCORE.INTRA.norm>
-0.05135

>  <SCORE.RESTR>
0

>  <SCORE.RESTR.CAVITY>
0

>  <SCORE.RESTR.norm>
0

>  <SCORE.SYSTEM>
0

>  <SCORE.SYSTEM.CONST>
0

>  <SCORE.SYSTEM.DIHEDRAL>
0

>  <SCORE.SYSTEM.norm>
0

>  <SCORE.heavy>
24

>  <SCORE.norm>
-0.644151

$$$$
design_14
 OpenBabel05252019093D

 24 25  0  0  0  0  0  0  0  0999 V2000
   44.7644  -45.9335   -0.3219 C   0  0  0  0  0  0  0  0  0  0  0  0
   44.1607  -46.2233    0.9179 O   0  0  0  0  0  0  0  0  0  0  0  0
   44.8786  -46.1658    2.1115 C   0  0  0  0  0  0  0  0  0  0  0  0
   46.0836  -46.8224    2.1596 C   0  0  0  0  0  0  0  0  0  0  0  0
   46.7697  -46.7489    3.3479 C   0  0  0  0  0  0  0  0  0  0  0  0
   46.2801  -46.0625    4.4234 C   0  0  0  0  0  0  0  0  0  0  0  0
   45.0339  -45.3822    4.3834 C   0  0  0  0  0  0  0  0  0  0  0  0
   44.5838  -44.7878    5.6198 C   0  0  0  0  0  0  0  0  0  0  0  0
   43.7507  -43.8102    5.5337 O   0  0  0  0  0  0  0  0  0  0  0  0
   44.9523  -45.1654    6.9055 N   0  0  0  0  0  0  0  0  0  0  0  0
   44.3654  -44.4774    8.0596 C   0  0  0  0  0  0  0  0  0  0  0  0
   43.0301  -44.9721    8.3952 C   0  0  0  0  0  0  0  0  0  0  0  0
   42.4785  -44.4096    9.4079 O   0  0  0  0  0  0  0  0  0  0  0  0
   42.3586  -45.9768    7.7116 N   0  0  0  0  0  0  0  0  0  0  0  0
   41.0628  -46.4667    8.0286 C   0  0  0  0  0  0  0  0  0  0  0  0
   40.2817  -46.0214    9.0407 C   0  0  0  0  0  0  0  0  0  0  0  0
   38.9891  -46.5247    9.2848 C   0  0  0  0  0  0  0  0  0  0  0  0
   38.5198  -47.5070    8.4523 C   0  0  0  0  0  0  0  0  0  0  0  0
   39.2871  -47.9905    7.4065 C   0  0  0  0  0  0  0  0  0  0  0  0
   38.7251  -49.0633    6.5296 C   0  0  0  0  0  0  0  0  0  0  0  0
   40.5392  -47.4726    7.2043 C   0  0  0  0  0  0  0  0  0  0  0  0
   44.3752  -45.4618    3.2067 C   0  0  0  0  0  0  0  0  0  0  0  0
   43.1534  -44.8415    3.0082 O   0  0  0  0  0  0  0  0  0  0  0  0
   41.9685  -45.3553    3.6439 C   0  0  0  0  0  0  0  0  0  0  0  0
  1  2  1  0  0  0  0
  2  3  1  0  0  0  0
  3  4  2  0  0  0  0
  4  5  1  0  0  0  0
  5  6  2  0  0  0  0
  6  7  1  0  0  0  0
  7  8  1  0  0  0  0
  7 22  2  0  0  0  0
  8  9  2  0  0  0  0
  8 10  1  0  0  0  0
 10 11  1  0  0  0  0
 11 12  1  0  0  0  0
 12 13  2  0  0  0  0
 12 14  1  0  0  0  0
 14 15  1  0  0  0  0
 15 16  2  0  0  0  0
 16 17  1  0  0  0  0
 17 18  2  0  0  0  0
 18 19  1  0  0  0  0
 19 20  1  0  0  0  0
 19 21  2  0  0  0  0
 21 15  1  0  0  0  0
 22 23  1  0  0  0  0
 22  3  1  0  0  0  0
 23 24  1  0  0  0  0
M  END
>  <CHROM.1>
-49.63226247,156.40922217,80.70706577,179.35052215,0.47655685,108.40393754
42.94039599,-45.95378172,5.55420897,0.79994713,-0.47136660,-1.85650713

>  <Name>
design_14

>  <RI>
0

>  <Rbt.Current_Directory>
/home/ziqiaoxu/icml18-jtnn/VAEdesign

>  <Rbt.Executable>
rbdock ($Id: //depot/dev/client3/rdock/2013.1/src/exe/rbdock.cxx#4 $)

>  <Rbt.Library>
libRbt.so (2013.1, Build901 2013/11/27)

>  <Rbt.Parameter_File>
/export/apps/rDock/src/rDock_2013.1_src//data/scripts/dock.prm

>  <Rbt.Receptor>
/home/ziqiaoxu/icml18-jtnn/VAEdesign/targets/RdRp-SARS-CoV-2/pocket_docking.prm

>  <SCORE>
-18.1272

>  <SCORE.INTER>
-17.4031

>  <SCORE.INTER.CONST>
1

>  <SCORE.INTER.POLAR>
-0.935258

>  <SCORE.INTER.REPUL>
0

>  <SCORE.INTER.ROT>
6

>  <SCORE.INTER.VDW>
-25.6232

>  <SCORE.INTER.norm>
-0.725128

>  <SCORE.INTRA>
-0.724119

>  <SCORE.INTRA.DIHEDRAL>
2.06317

>  <SCORE.INTRA.DIHEDRAL.0>
10.2076

>  <SCORE.INTRA.POLAR>
0.117378

>  <SCORE.INTRA.POLAR.0>
-0.117378

>  <SCORE.INTRA.REPUL>
0

>  <SCORE.INTRA.REPUL.0>
0

>  <SCORE.INTRA.VDW>
-2.15479

>  <SCORE.INTRA.VDW.0>
1.21316

>  <SCORE.INTRA.norm>
-0.0301716

>  <SCORE.RESTR>
0

>  <SCORE.RESTR.CAVITY>
0

>  <SCORE.RESTR.norm>
0

>  <SCORE.SYSTEM>
0

>  <SCORE.SYSTEM.CONST>
0

>  <SCORE.SYSTEM.DIHEDRAL>
0

>  <SCORE.SYSTEM.norm>
0

>  <SCORE.heavy>
24

>  <SCORE.norm>
-0.755299

$$$$
design_3
 OpenBabel05252019093D

 26 27  0  0  0  0  0  0  0  0999 V2000
   40.3106  -45.7210    9.8099 C   0  0  0  0  0  0  0  0  0  0  0  0
   39.3902  -46.4861    9.3630 N   0  0  0  0  0  0  0  0  0  0  0  0
   38.3325  -47.3644    8.8505 C   0  0  0  0  0  0  0  0  0  0  0  0
   37.2057  -47.4152    9.2807 O   0  0  0  0  0  0  0  0  0  0  0  0
   38.7099  -48.2570    7.6863 C   0  0  0  0  0  0  0  0  0  0  0  0
   38.9938  -47.4191    6.4964 C   0  0  0  0  0  0  0  0  0  0  0  0
   37.9376  -46.6158    6.0487 C   0  0  0  0  0  0  0  0  0  0  0  0
   38.1235  -45.8485    4.8993 C   0  0  0  0  0  0  0  0  0  0  0  0
   39.3209  -45.9052    4.2561 C   0  0  0  0  0  0  0  0  0  0  0  0
   39.5052  -45.1171    3.0624 N   0  0  0  0  0  0  0  0  0  0  0  0
   40.7387  -44.4526    2.9524 C   0  0  0  0  0  0  0  0  0  0  0  0
   41.6007  -44.6177    3.8789 O   0  0  0  0  0  0  0  0  0  0  0  0
   41.0617  -43.6263    1.8758 N   0  0  0  0  0  0  0  0  0  0  0  0
   42.3705  -42.9981    1.8297 C   0  0  1  0  0  0  0  0  0  0  0  0
   43.1315  -43.6021    0.6764 C   0  0  0  0  0  0  0  0  0  0  0  0
   43.4111  -45.0609    0.9914 C   0  0  0  0  0  0  0  0  0  0  0  0
   43.8214  -45.8067   -0.2687 C   0  0  0  0  0  0  0  0  0  0  0  0
   45.0423  -45.2995   -0.7481 O   0  0  0  0  0  0  0  0  0  0  0  0
   42.3865  -41.5481    1.9119 C   0  0  0  0  0  0  0  0  0  0  0  0
   43.0723  -40.8712    2.9039 C   0  0  0  0  0  0  0  0  0  0  0  0
   43.0742  -39.4746    2.9610 C   0  0  0  0  0  0  0  0  0  0  0  0
   42.3956  -38.7337    2.0382 C   0  0  0  0  0  0  0  0  0  0  0  0
   41.6864  -39.3845    1.0234 C   0  0  0  0  0  0  0  0  0  0  0  0
   41.6968  -40.7409    0.9804 C   0  0  0  0  0  0  0  0  0  0  0  0
   40.3711  -46.6797    4.6753 C   0  0  0  0  0  0  0  0  0  0  0  0
   40.2014  -47.4660    5.8391 C   0  0  0  0  0  0  0  0  0  0  0  0
  1  2  1  0  0  0  0
  2  3  1  0  0  0  0
  3  4  2  0  0  0  0
  3  5  1  0  0  0  0
  5  6  1  0  0  0  0
  6  7  2  0  0  0  0
  7  8  1  0  0  0  0
  8  9  2  0  0  0  0
  9 10  1  0  0  0  0
  9 25  1  0  0  0  0
 10 11  1  0  0  0  0
 11 12  2  0  0  0  0
 11 13  1  0  0  0  0
 13 14  1  0  0  0  0
 14 15  1  6  0  0  0
 14 19  1  0  0  0  0
 15 16  1  0  0  0  0
 16 17  1  0  0  0  0
 17 18  1  0  0  0  0
 19 20  2  0  0  0  0
 20 21  1  0  0  0  0
 21 22  2  0  0  0  0
 22 23  1  0  0  0  0
 23 24  2  0  0  0  0
 24 19  1  0  0  0  0
 25 26  2  0  0  0  0
 26  6  1  0  0  0  0
M  END
>  <CHROM.1>
-66.14527076,-59.97243980,137.34400766,112.67321766,-66.91536804,164.29498655
64.74588682,-71.59586200,121.85674712,40.94238021,-44.53036307,3.97453076
2.69299522,-1.05252724,-3.02007108

>  <Name>
design_3

>  <RI>
0

>  <Rbt.Current_Directory>
/home/ziqiaoxu/icml18-jtnn/VAEdesign

>  <Rbt.Executable>
rbdock ($Id: //depot/dev/client3/rdock/2013.1/src/exe/rbdock.cxx#4 $)

>  <Rbt.Library>
libRbt.so (2013.1, Build901 2013/11/27)

>  <Rbt.Parameter_File>
/export/apps/rDock/src/rDock_2013.1_src//data/scripts/dock.prm

>  <Rbt.Receptor>
/home/ziqiaoxu/icml18-jtnn/VAEdesign/targets/RdRp-SARS-CoV-2/pocket_docking.prm

>  <SCORE>
-21.0357

>  <SCORE.INTER>
-19.2482

>  <SCORE.INTER.CONST>
1

>  <SCORE.INTER.POLAR>
-2.14327

>  <SCORE.INTER.REPUL>
0.0521173

>  <SCORE.INTER.ROT>
8

>  <SCORE.INTER.VDW>
-25.6216

>  <SCORE.INTER.norm>
-0.740313

>  <SCORE.INTRA>
-1.85277

>  <SCORE.INTRA.DIHEDRAL>
-3.93053

>  <SCORE.INTRA.DIHEDRAL.0>
16.0388

>  <SCORE.INTRA.POLAR>
0

>  <SCORE.INTRA.POLAR.0>
0

>  <SCORE.INTRA.REPUL>
0

>  <SCORE.INTRA.REPUL.0>
0

>  <SCORE.INTRA.VDW>
0.112498

>  <SCORE.INTRA.VDW.0>
-0.548594

>  <SCORE.INTRA.norm>
-0.0712602

>  <SCORE.RESTR>
0.0652269

>  <SCORE.RESTR.CAVITY>
0.0652269

>  <SCORE.RESTR.norm>
0.00250873

>  <SCORE.SYSTEM>
0

>  <SCORE.SYSTEM.CONST>
0

>  <SCORE.SYSTEM.DIHEDRAL>
0

>  <SCORE.SYSTEM.norm>
0

>  <SCORE.heavy>
26

>  <SCORE.norm>
-0.809065

$$$$
design_10
 OpenBabel05252019093D

 26 28  0  0  0  0  0  0  0  0999 V2000
   39.8221  -37.1737    5.6216 C   0  0  0  0  0  0  0  0  0  0  0  0
   40.1170  -37.1498    4.1690 N   0  0  0  0  0  0  0  0  0  0  0  0
   41.0561  -37.8510    3.5062 C   0  0  0  0  0  0  0  0  0  0  0  0
   42.0265  -38.4257    3.9758 O   0  0  0  0  0  0  0  0  0  0  0  0
   40.7519  -37.9679    1.9255 C   0  0  0  0  0  0  0  0  0  0  0  0
   42.1319  -38.1939    1.4291 N   0  0  0  0  0  0  0  0  0  0  0  0
   43.0257  -37.1966    1.4229 C   0  0  0  0  0  0  0  0  0  0  0  0
   42.7641  -36.0723    2.0128 O   0  0  0  0  0  0  0  0  0  0  0  0
   44.2677  -37.3158    0.7969 C   0  0  0  0  0  0  0  0  0  0  0  0
   44.5463  -38.4870    0.2109 C   0  0  0  0  0  0  0  0  0  0  0  0
   43.6233  -39.5565    0.2298 C   0  0  0  0  0  0  0  0  0  0  0  0
   44.0305  -40.8098   -0.0717 C   0  0  0  0  0  0  0  0  0  0  0  0
   43.3234  -41.9071    0.2343 C   0  0  0  0  0  0  0  0  0  0  0  0
   42.0497  -41.6710    0.9297 C   0  0  0  0  0  0  0  0  0  0  0  0
   41.6271  -42.8108    1.4205 N   0  0  0  0  0  0  0  0  0  0  0  0
   41.1852  -43.9955    1.9301 C   0  0  0  0  0  0  0  0  0  0  0  0
   40.2100  -44.6395    2.0380 O   0  0  0  0  0  0  0  0  0  0  0  0
   42.4870  -44.7099    2.6009 C   0  0  0  0  0  0  0  0  0  0  0  0
   43.3398  -45.0776    1.4605 C   0  0  0  0  0  0  0  0  0  0  0  0
   44.6190  -44.5046    1.4037 C   0  0  0  0  0  0  0  0  0  0  0  0
   45.3884  -44.9087    0.3645 C   0  0  0  0  0  0  0  0  0  0  0  0
   45.0467  -45.7891   -0.6213 C   0  0  0  0  0  0  0  0  0  0  0  0
   43.7859  -46.3154   -0.5147 C   0  0  0  0  0  0  0  0  0  0  0  0
   42.9649  -45.9630    0.5260 C   0  0  0  0  0  0  0  0  0  0  0  0
   41.6418  -40.4405    1.1997 C   0  0  0  0  0  0  0  0  0  0  0  0
   42.4358  -39.3651    0.8454 C   0  0  0  0  0  0  0  0  0  0  0  0
  1  2  1  0  0  0  0
  2  3  1  0  0  0  0
  3  4  2  0  0  0  0
  3  5  1  0  0  0  0
  5  6  1  0  0  0  0
  6  7  1  0  0  0  0
  7  8  2  0  0  0  0
  7  9  1  0  0  0  0
  9 10  2  0  0  0  0
 10 11  1  0  0  0  0
 11 12  2  0  0  0  0
 12 13  1  0  0  0  0
 13 14  2  0  0  0  0
 14 15  1  0  0  0  0
 14 25  1  0  0  0  0
 15 16  1  0  0  0  0
 16 17  2  0  0  0  0
 16 18  1  0  0  0  0
 18 19  1  0  0  0  0
 19 20  2  0  0  0  0
 20 21  1  0  0  0  0
 21 22  2  0  0  0  0
 22 23  1  0  0  0  0
 23 24  2  0  0  0  0
 24 19  1  0  0  0  0
 25 26  2  0  0  0  0
 26  6  1  0  0  0  0
 26 11  1  0  0  0  0
M  END
>  <CHROM.1>
155.79311754,-72.29252784,-138.07809600,-69.17252617,118.98017704,42.55690392
-41.01595949,1.57328061,1.85596710,0.71405172,0.07811717

>  <Name>
design_10

>  <RI>
0

>  <Rbt.Current_Directory>
/home/ziqiaoxu/icml18-jtnn/VAEdesign

>  <Rbt.Executable>
rbdock ($Id: //depot/dev/client3/rdock/2013.1/src/exe/rbdock.cxx#4 $)

>  <Rbt.Library>
libRbt.so (2013.1, Build901 2013/11/27)

>  <Rbt.Parameter_File>
/export/apps/rDock/src/rDock_2013.1_src//data/scripts/dock.prm

>  <Rbt.Receptor>
/home/ziqiaoxu/icml18-jtnn/VAEdesign/targets/RdRp-SARS-CoV-2/pocket_docking.prm

>  <SCORE>
-25.7741

>  <SCORE.INTER>
-21.0667

>  <SCORE.INTER.CONST>
1

>  <SCORE.INTER.POLAR>
-1.71917

>  <SCORE.INTER.REPUL>
0

>  <SCORE.INTER.ROT>
5

>  <SCORE.INTER.VDW>
-25.6215

>  <SCORE.INTER.norm>
-0.810256

>  <SCORE.INTRA>
-4.70742

>  <SCORE.INTRA.DIHEDRAL>
-3.271

>  <SCORE.INTRA.DIHEDRAL.0>
14.5906

>  <SCORE.INTRA.POLAR>
0

>  <SCORE.INTRA.POLAR.0>
0

>  <SCORE.INTRA.REPUL>
0

>  <SCORE.INTRA.REPUL.0>
0

>  <SCORE.INTRA.VDW>
-3.07192

>  <SCORE.INTRA.VDW.0>
0.580836

>  <SCORE.INTRA.norm>
-0.181055

>  <SCORE.RESTR>
0

>  <SCORE.RESTR.CAVITY>
0

>  <SCORE.RESTR.norm>
0

>  <SCORE.SYSTEM>
0

>  <SCORE.SYSTEM.CONST>
0

>  <SCORE.SYSTEM.DIHEDRAL>
0

>  <SCORE.SYSTEM.norm>
0

>  <SCORE.heavy>
26

>  <SCORE.norm>
-0.991311

$$$$
design_1
 OpenBabel05252019093D

 26 28  0  0  0  0  0  0  0  0999 V2000
   41.0166  -44.4583    2.6367 C   0  0  0  0  0  0  0  0  0  0  0  0
   42.4164  -44.9658    2.4703 C   0  0  0  0  0  0  0  0  0  0  0  0
   42.8483  -45.2875    1.2027 C   0  0  0  0  0  0  0  0  0  0  0  0
   44.1170  -45.7530    1.0120 C   0  0  0  0  0  0  0  0  0  0  0  0
   45.0087  -45.9172    2.0822 C   0  0  0  0  0  0  0  0  0  0  0  0
   46.3731  -46.4345    1.7986 C   0  0  0  0  0  0  0  0  0  0  0  0
   44.5733  -45.5951    3.3449 C   0  0  0  0  0  0  0  0  0  0  0  0
   45.4870  -45.7281    4.4813 C   0  0  0  0  0  0  0  0  0  0  0  0
   46.3937  -46.6007    4.4109 O   0  0  0  0  0  0  0  0  0  0  0  0
   45.4158  -44.9170    5.6999 C   0  0  1  0  0  0  0  0  0  0  0  0
   45.3120  -43.4402    5.4862 C   0  0  0  0  0  0  0  0  0  0  0  0
   45.2364  -42.6913    6.8122 C   0  0  0  0  0  0  0  0  0  0  0  0
   45.1432  -43.6751    7.9662 C   0  0  0  0  0  0  0  0  0  0  0  0
   44.0282  -44.6182    7.6882 N   0  0  0  0  0  0  0  0  0  0  0  0
   43.0027  -44.7038    8.6165 C   0  0  0  0  0  0  0  0  0  0  0  0
   43.1770  -43.8915    9.6565 O   0  0  0  0  0  0  0  0  0  0  0  0
   41.7967  -45.4837    8.6884 C   0  0  0  0  0  0  0  0  0  0  0  0
   40.8868  -45.2212    9.6978 C   0  0  0  0  0  0  0  0  0  0  0  0
   39.7277  -45.9349    9.8140 C   0  0  0  0  0  0  0  0  0  0  0  0
   39.4288  -46.9305    8.9388 C   0  0  0  0  0  0  0  0  0  0  0  0
   40.2879  -47.2367    7.9206 C   0  0  0  0  0  0  0  0  0  0  0  0
   40.0268  -48.2723    6.9709 C   0  0  0  0  0  0  0  0  0  0  0  0
   39.7940  -49.1287    6.1994 N   0  0  0  0  0  0  0  0  0  0  0  0
   41.4789  -46.4867    7.8198 C   0  0  0  0  0  0  0  0  0  0  0  0
   44.1570  -45.3292    6.4707 C   0  0  0  0  0  0  0  0  0  0  0  0
   43.2783  -45.1211    3.5267 C   0  0  0  0  0  0  0  0  0  0  0  0
  1  2  1  0  0  0  0
  2  3  2  0  0  0  0
  3  4  1  0  0  0  0
  4  5  2  0  0  0  0
  5  6  1  0  0  0  0
  5  7  1  0  0  0  0
  7  8  1  0  0  0  0
  7 26  2  0  0  0  0
  8  9  2  0  0  0  0
 10  8  1  6  0  0  0
 10 11  1  0  0  0  0
 11 12  1  0  0  0  0
 12 13  1  0  0  0  0
 13 14  1  0  0  0  0
 14 15  1  0  0  0  0
 14 25  1  0  0  0  0
 15 16  2  0  0  0  0
 15 17  1  0  0  0  0
 17 18  2  0  0  0  0
 18 19  1  0  0  0  0
 19 20  2  0  0  0  0
 20 21  1  0  0  0  0
 21 22  1  0  0  0  0
 21 24  2  0  0  0  0
 22 23  3  0  0  0  0
 24 17  1  0  0  0  0
 25 10  1  0  0  0  0
 26  2  1  0  0  0  0
M  END
>  <CHROM.1>
-28.78134525,-49.13241773,-172.63098730,43.15016265,-45.50242223,5.82467321
0.93771389,-0.51333179,-1.82436201

>  <Name>
design_1

>  <RI>
0

>  <Rbt.Current_Directory>
/home/ziqiaoxu/icml18-jtnn/VAEdesign

>  <Rbt.Executable>
rbdock ($Id: //depot/dev/client3/rdock/2013.1/src/exe/rbdock.cxx#4 $)

>  <Rbt.Library>
libRbt.so (2013.1, Build901 2013/11/27)

>  <Rbt.Parameter_File>
/export/apps/rDock/src/rDock_2013.1_src//data/scripts/dock.prm

>  <Rbt.Receptor>
/home/ziqiaoxu/icml18-jtnn/VAEdesign/targets/RdRp-SARS-CoV-2/pocket_docking.prm

>  <SCORE>
-19.8986

>  <SCORE.INTER>
-16.8683

>  <SCORE.INTER.CONST>
1

>  <SCORE.INTER.POLAR>
-0.0144458

>  <SCORE.INTER.REPUL>
0.0799716

>  <SCORE.INTER.ROT>
3

>  <SCORE.INTER.VDW>
-25.619

>  <SCORE.INTER.norm>
-0.64878

>  <SCORE.INTRA>
-3.03036

>  <SCORE.INTRA.DIHEDRAL>
2.51223

>  <SCORE.INTRA.DIHEDRAL.0>
1.32023

>  <SCORE.INTRA.POLAR>
0

>  <SCORE.INTRA.POLAR.0>
0

>  <SCORE.INTRA.REPUL>
0

>  <SCORE.INTRA.REPUL.0>
0

>  <SCORE.INTRA.VDW>
-4.28647

>  <SCORE.INTRA.VDW.0>
6.26979

>  <SCORE.INTRA.norm>
-0.116552

>  <SCORE.RESTR>
0

>  <SCORE.RESTR.CAVITY>
0

>  <SCORE.RESTR.norm>
0

>  <SCORE.SYSTEM>
0

>  <SCORE.SYSTEM.CONST>
0

>  <SCORE.SYSTEM.DIHEDRAL>
0

>  <SCORE.SYSTEM.norm>
0

>  <SCORE.heavy>
26

>  <SCORE.norm>
-0.765332

$$$$
design_2
 OpenBabel05252019093D

 27 29  0  0  0  0  0  0  0  0999 V2000
   45.7340  -41.4213    1.2658 O   0  0  0  0  0  0  0  0  0  0  0  0
   44.8378  -41.9257    0.5565 C   0  0  0  0  0  0  0  0  0  0  0  0
   44.1297  -43.1576    0.9474 C   0  0  0  0  0  0  0  0  0  0  0  0
   44.4906  -44.2934    0.0457 C   0  0  0  0  0  0  0  0  0  0  0  0
   45.8611  -44.8545    0.2498 C   0  0  0  0  0  0  0  0  0  0  0  0
   45.7677  -46.2332   -0.4157 C   0  0  0  0  0  0  0  0  0  0  0  0
   44.3424  -46.6601   -0.2962 C   0  0  0  0  0  0  0  0  0  0  0  0
   43.5856  -45.4995    0.2995 C   0  0  0  0  0  0  0  0  0  0  0  0
   44.4884  -41.2976   -0.6612 N   0  0  0  0  0  0  0  0  0  0  0  0
   45.1384  -40.0796   -1.1296 C   0  0  0  0  0  0  0  0  0  0  0  0
   45.1716  -39.0050   -0.0955 C   0  0  0  0  0  0  0  0  0  0  0  0
   43.8411  -38.8113    0.4518 N   0  0  0  0  0  0  0  0  0  0  0  0
   43.4463  -37.6862    1.2056 C   0  0  0  0  0  0  0  0  0  0  0  0
   44.3588  -36.7975    1.3808 O   0  0  0  0  0  0  0  0  0  0  0  0
   42.1731  -37.4751    1.7576 N   0  0  0  0  0  0  0  0  0  0  0  0
   41.1074  -38.4139    1.6270 C   0  0  0  0  0  0  0  0  0  0  0  0
   40.2249  -38.5203    2.8537 C   0  0  0  0  0  0  0  0  0  0  0  0
   40.6368  -37.7199    3.9576 N   0  0  0  0  0  0  0  0  0  0  0  0
   39.5509  -37.6864    4.9192 C   0  0  0  0  0  0  0  0  0  0  0  0
   39.8468  -38.4949    6.1160 C   0  0  0  0  0  0  0  0  0  0  0  0
   40.4473  -37.9425    7.2342 C   0  0  0  0  0  0  0  0  0  0  0  0
   40.7206  -38.7196    8.3487 C   0  0  0  0  0  0  0  0  0  0  0  0
   40.3727  -40.0366    8.2879 C   0  0  0  0  0  0  0  0  0  0  0  0
   39.7730  -40.6061    7.1821 C   0  0  0  0  0  0  0  0  0  0  0  0
   39.5322  -39.8052    6.1311 N   0  0  0  0  0  0  0  0  0  0  0  0
   40.9878  -36.3768    3.6289 C   0  0  0  0  0  0  0  0  0  0  0  0
   41.9264  -36.2433    2.4824 C   0  0  0  0  0  0  0  0  0  0  0  0
  1  2  2  0  0  0  0
  2  3  1  0  0  0  0
  2  9  1  0  0  0  0
  3  4  1  0  0  0  0
  4  5  1  0  0  0  0
  5  6  1  0  0  0  0
  6  7  1  0  0  0  0
  7  8  1  0  0  0  0
  8  4  1  0  0  0  0
  9 10  1  0  0  0  0
 10 11  1  0  0  0  0
 11 12  1  0  0  0  0
 12 13  1  0  0  0  0
 13 14  2  0  0  0  0
 13 15  1  0  0  0  0
 15 16  1  0  0  0  0
 16 17  1  0  0  0  0
 17 18  1  0  0  0  0
 18 19  1  0  0  0  0
 18 26  1  0  0  0  0
 19 20  1  0  0  0  0
 20 21  2  0  0  0  0
 21 22  1  0  0  0  0
 22 23  2  0  0  0  0
 23 24  1  0  0  0  0
 24 25  2  0  0  0  0
 25 20  1  0  0  0  0
 26 27  1  0  0  0  0
 27 15  1  0  0  0  0
M  END
>  <CHROM.1>
-111.14734340,73.29634684,-50.72971402,-50.68561261,-164.38440675,107.32994962
91.70205921,42.73415767,-40.21661575,2.45046177,-0.46970995,0.98590353,-0.23127958

>  <Name>
design_2

>  <RI>
0

>  <Rbt.Current_Directory>
/home/ziqiaoxu/icml18-jtnn/VAEdesign

>  <Rbt.Executable>
rbdock ($Id: //depot/dev/client3/rdock/2013.1/src/exe/rbdock.cxx#4 $)

>  <Rbt.Library>
libRbt.so (2013.1, Build901 2013/11/27)

>  <Rbt.Parameter_File>
/export/apps/rDock/src/rDock_2013.1_src//data/scripts/dock.prm

>  <Rbt.Receptor>
/home/ziqiaoxu/icml18-jtnn/VAEdesign/targets/RdRp-SARS-CoV-2/pocket_docking.prm

>  <SCORE>
-17.9466

>  <SCORE.INTER>
-16.4992

>  <SCORE.INTER.CONST>
1

>  <SCORE.INTER.POLAR>
-0.964928

>  <SCORE.INTER.REPUL>
0

>  <SCORE.INTER.ROT>
7

>  <SCORE.INTER.VDW>
-25.6184

>  <SCORE.INTER.norm>
-0.61108

>  <SCORE.INTRA>
-1.45279

>  <SCORE.INTRA.DIHEDRAL>
3.18626

>  <SCORE.INTRA.DIHEDRAL.0>
4.30249

>  <SCORE.INTRA.POLAR>
0

>  <SCORE.INTRA.POLAR.0>
0

>  <SCORE.INTRA.REPUL>
0

>  <SCORE.INTRA.REPUL.0>
0

>  <SCORE.INTRA.VDW>
-3.04592

>  <SCORE.INTRA.VDW.0>
1.42755

>  <SCORE.INTRA.norm>
-0.0538071

>  <SCORE.RESTR>
0.00533544

>  <SCORE.RESTR.CAVITY>
0.00533544

>  <SCORE.RESTR.norm>
0.000197609

>  <SCORE.SYSTEM>
0

>  <SCORE.SYSTEM.CONST>
0

>  <SCORE.SYSTEM.DIHEDRAL>
0

>  <SCORE.SYSTEM.norm>
0

>  <SCORE.heavy>
27

>  <SCORE.norm>
-0.66469

$$$$
design_17
 OpenBabel05252019093D

 24 26  0  0  0  0  0  0  0  0999 V2000
   37.2205  -46.3982    6.3165 C   0  0  0  0  0  0  0  0  0  0  0  0
   38.2469  -46.2382    7.4224 C   0  0  0  0  0  0  0  0  0  0  0  0
   39.5101  -45.8943    7.3175 N   0  0  0  0  0  0  0  0  0  0  0  0
   40.2595  -45.8027    8.3760 C   0  0  0  0  0  0  0  0  0  0  0  0
   41.6981  -45.4195    8.3409 C   0  0  0  0  0  0  0  0  0  0  0  0
   42.3072  -44.7690    9.3714 C   0  0  0  0  0  0  0  0  0  0  0  0
   43.6610  -44.4251    9.3017 C   0  0  0  0  0  0  0  0  0  0  0  0
   44.4151  -44.7312    8.1979 C   0  0  0  0  0  0  0  0  0  0  0  0
   43.8112  -45.4046    7.1161 C   0  0  0  0  0  0  0  0  0  0  0  0
   44.6243  -45.6718    6.0044 N   0  0  0  0  0  0  0  0  0  0  0  0
   44.2051  -45.5245    4.6694 C   0  0  0  0  0  0  0  0  0  0  0  0
   43.0598  -45.1473    4.2940 O   0  0  0  0  0  0  0  0  0  0  0  0
   45.1247  -45.8169    3.5451 C   0  0  0  0  0  0  0  0  0  0  0  0
   46.4505  -46.0255    3.8103 C   0  0  0  0  0  0  0  0  0  0  0  0
   47.3576  -46.3079    2.8053 C   0  0  0  0  0  0  0  0  0  0  0  0
   46.8492  -46.3662    1.5286 C   0  0  0  0  0  0  0  0  0  0  0  0
   45.5233  -46.1637    1.2128 C   0  0  0  0  0  0  0  0  0  0  0  0
   45.0303  -46.2346   -0.1477 C   0  0  0  0  0  0  0  0  0  0  0  0
   43.7266  -45.8016   -0.4584 N   0  0  0  0  0  0  0  0  0  0  0  0
   45.7848  -46.6875   -1.0397 O   0  0  0  0  0  0  0  0  0  0  0  0
   44.6443  -45.8811    2.2639 C   0  0  0  0  0  0  0  0  0  0  0  0
   42.4846  -45.7240    7.2206 C   0  0  0  0  0  0  0  0  0  0  0  0
   39.6581  -46.0825    9.5836 C   0  0  0  0  0  0  0  0  0  0  0  0
   38.0583  -46.4566    9.1030 S   0  0  0  0  0  0  0  0  0  0  0  0
  1  2  1  0  0  0  0
  2  3  2  0  0  0  0
  3  4  1  0  0  0  0
  4  5  1  0  0  0  0
  4 23  2  0  0  0  0
  5  6  2  0  0  0  0
  6  7  1  0  0  0  0
  7  8  2  0  0  0  0
  8  9  1  0  0  0  0
  9 10  1  0  0  0  0
  9 22  2  0  0  0  0
 10 11  1  0  0  0  0
 11 12  2  0  0  0  0
 11 13  1  0  0  0  0
 13 14  2  0  0  0  0
 14 15  1  0  0  0  0
 15 16  2  0  0  0  0
 16 17  1  0  0  0  0
 17 18  1  0  0  0  0
 17 21  2  0  0  0  0
 18 19  1  0  0  0  0
 18 20  2  0  0  0  0
 21 13  1  0  0  0  0
 22  5  1  0  0  0  0
 23 24  1  0  0  0  0
 24  2  1  0  0  0  0
M  END
>  <CHROM.1>
150.22207866,-138.41090375,-10.40333448,-169.14478742,42.78402266,-45.83292212
5.37955286,2.27002704,0.14741956,1.41764745

>  <Name>
design_17

>  <RI>
0

>  <Rbt.Current_Directory>
/home/ziqiaoxu/icml18-jtnn/VAEdesign

>  <Rbt.Executable>
rbdock ($Id: //depot/dev/client3/rdock/2013.1/src/exe/rbdock.cxx#4 $)

>  <Rbt.Library>
libRbt.so (2013.1, Build901 2013/11/27)

>  <Rbt.Parameter_File>
/export/apps/rDock/src/rDock_2013.1_src//data/scripts/dock.prm

>  <Rbt.Receptor>
/home/ziqiaoxu/icml18-jtnn/VAEdesign/targets/RdRp-SARS-CoV-2/pocket_docking.prm

>  <SCORE>
-18.8308

>  <SCORE.INTER>
-21.8201

>  <SCORE.INTER.CONST>
1

>  <SCORE.INTER.POLAR>
-1.64812

>  <SCORE.INTER.REPUL>
0

>  <SCORE.INTER.ROT>
4

>  <SCORE.INTER.VDW>
-25.6166

>  <SCORE.INTER.norm>
-0.909173

>  <SCORE.INTRA>
2.98938

>  <SCORE.INTRA.DIHEDRAL>
6.79617

>  <SCORE.INTRA.DIHEDRAL.0>
2.75698

>  <SCORE.INTRA.POLAR>
0

>  <SCORE.INTRA.POLAR.0>
0

>  <SCORE.INTRA.REPUL>
0

>  <SCORE.INTRA.REPUL.0>
0

>  <SCORE.INTRA.VDW>
-0.408708

>  <SCORE.INTRA.VDW.0>
0.231508

>  <SCORE.INTRA.norm>
0.124557

>  <SCORE.RESTR>
0

>  <SCORE.RESTR.CAVITY>
0

>  <SCORE.RESTR.norm>
0

>  <SCORE.SYSTEM>
0

>  <SCORE.SYSTEM.CONST>
0

>  <SCORE.SYSTEM.DIHEDRAL>
0

>  <SCORE.SYSTEM.norm>
0

>  <SCORE.heavy>
24

>  <SCORE.norm>
-0.784616

$$$$
design_17
 OpenBabel05252019093D

 23 25  0  0  0  0  0  0  0  0999 V2000
   39.0650  -48.5660    6.6801 C   0  0  0  0  0  0  0  0  0  0  0  0
   39.7875  -47.5810    7.5361 C   0  0  0  0  0  0  0  0  0  0  0  0
   39.1836  -47.2376    8.7281 C   0  0  0  0  0  0  0  0  0  0  0  0
   39.8321  -46.3273    9.5394 C   0  0  0  0  0  0  0  0  0  0  0  0
   41.0434  -45.7960    9.1433 C   0  0  0  0  0  0  0  0  0  0  0  0
   41.6577  -46.1307    7.9548 C   0  0  0  0  0  0  0  0  0  0  0  0
   42.9387  -45.5603    7.5501 C   0  0  0  0  0  0  0  0  0  0  0  0
   43.5100  -45.6070    6.3350 N   0  0  0  0  0  0  0  0  0  0  0  0
   44.7035  -44.9553    6.3714 C   0  0  0  0  0  0  0  0  0  0  0  0
   45.6732  -44.7610    5.2486 C   0  0  0  0  0  0  0  0  0  0  0  0
   45.7953  -46.0177    4.5607 N   0  0  0  0  0  0  0  0  0  0  0  0
   46.3837  -45.8586    3.2455 C   0  0  0  0  0  0  0  0  0  0  0  0
   45.3880  -45.9427    2.1696 C   0  0  0  0  0  0  0  0  0  0  0  0
   45.6947  -46.4868    0.9498 C   0  0  0  0  0  0  0  0  0  0  0  0
   44.7223  -46.5530   -0.0576 C   0  0  0  0  0  0  0  0  0  0  0  0
   45.0404  -47.0902   -1.2493 F   0  0  0  0  0  0  0  0  0  0  0  0
   43.4698  -46.0705    0.1900 C   0  0  0  0  0  0  0  0  0  0  0  0
   43.1408  -45.5234    1.3996 C   0  0  0  0  0  0  0  0  0  0  0  0
   41.8863  -45.0561    1.6041 F   0  0  0  0  0  0  0  0  0  0  0  0
   44.1193  -45.4696    2.3783 C   0  0  0  0  0  0  0  0  0  0  0  0
   44.8282  -44.5135    7.6592 C   0  0  0  0  0  0  0  0  0  0  0  0
   43.7670  -44.8934    8.3129 O   0  0  0  0  0  0  0  0  0  0  0  0
   41.0090  -47.0400    7.1454 C   0  0  0  0  0  0  0  0  0  0  0  0
  1  2  1  0  0  0  0
  2  3  2  0  0  0  0
  3  4  1  0  0  0  0
  4  5  2  0  0  0  0
  5  6  1  0  0  0  0
  6  7  1  0  0  0  0
  6 23  2  0  0  0  0
  7  8  2  0  0  0  0
  8  9  1  0  0  0  0
  9 10  1  0  0  0  0
  9 21  2  0  0  0  0
 10 11  1  0  0  0  0
 11 12  1  0  0  0  0
 12 13  1  0  0  0  0
 13 14  2  0  0  0  0
 14 15  1  0  0  0  0
 15 16  1  0  0  0  0
 15 17  2  0  0  0  0
 17 18  1  0  0  0  0
 18 19  1  0  0  0  0
 18 20  2  0  0  0  0
 20 13  1  0  0  0  0
 21 22  1  0  0  0  0
 22  7  1  0  0  0  0
 23  2  1  0  0  0  0
M  END
>  <CHROM.1>
-166.49101296,-44.29612407,162.94965539,-103.50867751,-146.23166267,43.18633183
-46.04767369,4.79735022,2.07627384,0.37189069,1.41326949

>  <Name>
design_17

>  <RI>
0

>  <Rbt.Current_Directory>
/home/ziqiaoxu/icml18-jtnn/VAEdesign

>  <Rbt.Executable>
rbdock ($Id: //depot/dev/client3/rdock/2013.1/src/exe/rbdock.cxx#4 $)

>  <Rbt.Library>
libRbt.so (2013.1, Build901 2013/11/27)

>  <Rbt.Parameter_File>
/export/apps/rDock/src/rDock_2013.1_src//data/scripts/dock.prm

>  <Rbt.Receptor>
/home/ziqiaoxu/icml18-jtnn/VAEdesign/targets/RdRp-SARS-CoV-2/pocket_docking.prm

>  <SCORE>
-18.2378

>  <SCORE.INTER>
-18.2573

>  <SCORE.INTER.CONST>
1

>  <SCORE.INTER.POLAR>
-0.894427

>  <SCORE.INTER.REPUL>
0

>  <SCORE.INTER.ROT>
5

>  <SCORE.INTER.VDW>
-25.6162

>  <SCORE.INTER.norm>
-0.793796

>  <SCORE.INTRA>
0.0195378

>  <SCORE.INTRA.DIHEDRAL>
1.1138

>  <SCORE.INTRA.DIHEDRAL.0>
3.30122

>  <SCORE.INTRA.POLAR>
0

>  <SCORE.INTRA.POLAR.0>
0

>  <SCORE.INTRA.REPUL>
0

>  <SCORE.INTRA.REPUL.0>
0

>  <SCORE.INTRA.VDW>
-0.537363

>  <SCORE.INTRA.VDW.0>
-0.842449

>  <SCORE.INTRA.norm>
0.000849468

>  <SCORE.RESTR>
0

>  <SCORE.RESTR.CAVITY>
0

>  <SCORE.RESTR.norm>
0

>  <SCORE.SYSTEM>
0

>  <SCORE.SYSTEM.CONST>
0

>  <SCORE.SYSTEM.DIHEDRAL>
0

>  <SCORE.SYSTEM.norm>
0

>  <SCORE.heavy>
23

>  <SCORE.norm>
-0.792946

$$$$
design_11
 OpenBabel05252019093D

 22 24  0  0  0  0  0  0  0  0999 V2000
   40.3506  -42.7596    8.0993 O   0  0  0  0  0  0  0  0  0  0  0  0
   39.7138  -42.9090    9.1531 C   0  0  0  0  0  0  0  0  0  0  0  0
   39.5501  -41.6731   10.0004 C   0  0  0  0  0  0  0  0  0  0  0  0
   39.9189  -40.4772    9.2161 C   0  0  0  0  0  0  0  0  0  0  0  0
   39.5646  -40.2309    7.9209 N   0  0  0  0  0  0  0  0  0  0  0  0
   40.0747  -39.0512    7.5328 C   0  0  0  0  0  0  0  0  0  0  0  0
   39.9289  -38.4129    6.2116 C   0  0  0  0  0  0  0  0  0  0  0  0
   40.1294  -37.0652    6.0407 C   0  0  0  0  0  0  0  0  0  0  0  0
   39.9841  -36.5042    4.7910 C   0  0  0  0  0  0  0  0  0  0  0  0
   39.6378  -37.2706    3.6918 C   0  0  0  0  0  0  0  0  0  0  0  0
   39.4347  -38.6303    3.8603 C   0  0  0  0  0  0  0  0  0  0  0  0
   39.5848  -39.1566    5.1038 C   0  0  0  0  0  0  0  0  0  0  0  0
   40.7450  -38.5695    8.5918 N   0  0  0  0  0  0  0  0  0  0  0  0
   40.6518  -39.4297    9.6091 N   0  0  0  0  0  0  0  0  0  0  0  0
   39.1784  -44.1388    9.5389 N   0  0  0  0  0  0  0  0  0  0  0  0
   39.2869  -45.3317    8.8276 C   0  0  0  0  0  0  0  0  0  0  0  0
   40.1818  -45.4922    7.8084 C   0  0  0  0  0  0  0  0  0  0  0  0
   40.1975  -46.7239    7.1388 C   0  0  0  0  0  0  0  0  0  0  0  0
   39.3644  -47.7673    7.4560 C   0  0  0  0  0  0  0  0  0  0  0  0
   39.4176  -49.4274    6.5199 Br  0  0  0  0  0  0  0  0  0  0  0  0
   38.4685  -47.5858    8.4885 C   0  0  0  0  0  0  0  0  0  0  0  0
   38.4219  -46.4002    9.1654 C   0  0  0  0  0  0  0  0  0  0  0  0
  1  2  2  0  0  0  0
  2  3  1  0  0  0  0
  2 15  1  0  0  0  0
  3  4  1  0  0  0  0
  4  5  2  0  0  0  0
  5  6  1  0  0  0  0
  6  7  1  0  0  0  0
  6 13  2  0  0  0  0
  7  8  2  0  0  0  0
  8  9  1  0  0  0  0
  9 10  2  0  0  0  0
 10 11  1  0  0  0  0
 11 12  2  0  0  0  0
 12  7  1  0  0  0  0
 13 14  1  0  0  0  0
 14  4  1  0  0  0  0
 15 16  1  0  0  0  0
 16 17  2  0  0  0  0
 17 18  1  0  0  0  0
 18 19  2  0  0  0  0
 19 20  1  0  0  0  0
 19 21  1  0  0  0  0
 21 22  2  0  0  0  0
 22 16  1  0  0  0  0
M  END
>  <CHROM.1>
13.55576620,43.33174271,159.89269036,14.67618411,39.67050315,-43.41034005
7.34314286,-0.53006275,1.49858530,2.03314874

>  <Name>
design_11

>  <RI>
0

>  <Rbt.Current_Directory>
/home/ziqiaoxu/icml18-jtnn/VAEdesign

>  <Rbt.Executable>
rbdock ($Id: //depot/dev/client3/rdock/2013.1/src/exe/rbdock.cxx#4 $)

>  <Rbt.Library>
libRbt.so (2013.1, Build901 2013/11/27)

>  <Rbt.Parameter_File>
/export/apps/rDock/src/rDock_2013.1_src//data/scripts/dock.prm

>  <Rbt.Receptor>
/home/ziqiaoxu/icml18-jtnn/VAEdesign/targets/RdRp-SARS-CoV-2/pocket_docking.prm

>  <SCORE>
-18.9424

>  <SCORE.INTER>
-19.5645

>  <SCORE.INTER.CONST>
1

>  <SCORE.INTER.POLAR>
-0.985515

>  <SCORE.INTER.REPUL>
0

>  <SCORE.INTER.ROT>
4

>  <SCORE.INTER.VDW>
-25.6137

>  <SCORE.INTER.norm>
-0.889295

>  <SCORE.INTRA>
0.621416

>  <SCORE.INTRA.DIHEDRAL>
0.653495

>  <SCORE.INTRA.DIHEDRAL.0>
4.44378

>  <SCORE.INTRA.POLAR>
0

>  <SCORE.INTRA.POLAR.0>
0

>  <SCORE.INTRA.REPUL>
0

>  <SCORE.INTRA.REPUL.0>
0

>  <SCORE.INTRA.VDW>
0.294669

>  <SCORE.INTRA.VDW.0>
-0.290111

>  <SCORE.INTRA.norm>
0.0282462

>  <SCORE.RESTR>
0.000685137

>  <SCORE.RESTR.CAVITY>
0.000685137

>  <SCORE.RESTR.norm>
3.11426e-05

>  <SCORE.SYSTEM>
0

>  <SCORE.SYSTEM.CONST>
0

>  <SCORE.SYSTEM.DIHEDRAL>
0

>  <SCORE.SYSTEM.norm>
0

>  <SCORE.heavy>
22

>  <SCORE.norm>
-0.861018

$$$$
design_6
 OpenBabel05252019093D

 28 31  0  0  0  0  0  0  0  0999 V2000
   47.5652  -47.4144    2.1743 C   0  0  0  0  0  0  0  0  0  0  0  0
   46.5051  -46.4752    2.4592 N   0  0  0  0  0  0  0  0  0  0  0  0
   46.3817  -45.8680    3.6651 C   0  0  0  0  0  0  0  0  0  0  0  0
   47.2538  -46.1883    4.4953 O   0  0  0  0  0  0  0  0  0  0  0  0
   45.3976  -44.9714    3.9878 C   0  0  0  0  0  0  0  0  0  0  0  0
   45.2220  -44.3033    5.2444 C   0  0  0  0  0  0  0  0  0  0  0  0
   44.7503  -43.1127    5.1717 O   0  0  0  0  0  0  0  0  0  0  0  0
   45.5044  -44.8035    6.5024 N   0  0  0  0  0  0  0  0  0  0  0  0
   45.2937  -44.0261    7.7361 C   0  0  0  0  0  0  0  0  0  0  0  0
   43.9015  -43.5742    7.9056 C   0  0  0  0  0  0  0  0  0  0  0  0
   42.9020  -44.6755    7.6961 C   0  0  0  0  0  0  0  0  0  0  0  0
   42.1345  -45.0893    8.7618 C   0  0  0  0  0  0  0  0  0  0  0  0
   41.1929  -46.1015    8.6358 C   0  0  0  0  0  0  0  0  0  0  0  0
   40.9928  -46.7335    7.4255 C   0  0  0  0  0  0  0  0  0  0  0  0
   40.0252  -47.7765    7.2887 N   0  0  0  0  0  0  0  0  0  0  0  0
   39.7342  -48.4726    6.1675 C   0  0  0  0  0  0  0  0  0  0  0  0
   38.7448  -49.4012    6.4165 C   0  0  0  0  0  0  0  0  0  0  0  0
   38.4441  -49.2326    7.7651 C   0  0  0  0  0  0  0  0  0  0  0  0
   39.2342  -48.2552    8.2322 N   0  0  0  0  0  0  0  0  0  0  0  0
   41.7591  -46.3217    6.3578 C   0  0  0  0  0  0  0  0  0  0  0  0
   42.7074  -45.3017    6.4861 C   0  0  0  0  0  0  0  0  0  0  0  0
   44.5105  -44.7239    2.9584 N   0  0  0  0  0  0  0  0  0  0  0  0
   44.5998  -45.3017    1.7598 C   0  0  0  0  0  0  0  0  0  0  0  0
   43.6630  -44.9933    0.7834 C   0  0  0  0  0  0  0  0  0  0  0  0
   43.7514  -45.5835   -0.4458 C   0  0  0  0  0  0  0  0  0  0  0  0
   44.7523  -46.4818   -0.7421 C   0  0  0  0  0  0  0  0  0  0  0  0
   45.6651  -46.7643    0.2518 C   0  0  0  0  0  0  0  0  0  0  0  0
   45.6186  -46.1995    1.4973 C   0  0  0  0  0  0  0  0  0  0  0  0
  1  2  1  0  0  0  0
  2  3  1  0  0  0  0
  3  4  2  0  0  0  0
  3  5  1  0  0  0  0
  5  6  1  0  0  0  0
  5 22  2  0  0  0  0
  6  7  2  0  0  0  0
  6  8  1  0  0  0  0
  8  9  1  0  0  0  0
  9 10  1  0  0  0  0
 10 11  1  0  0  0  0
 11 12  2  0  0  0  0
 12 13  1  0  0  0  0
 13 14  2  0  0  0  0
 14 15  1  0  0  0  0
 14 20  1  0  0  0  0
 15 16  1  0  0  0  0
 16 17  2  0  0  0  0
 17 18  1  0  0  0  0
 18 19  2  0  0  0  0
 19 15  1  0  0  0  0
 20 21  2  0  0  0  0
 21 11  1  0  0  0  0
 22 23  1  0  0  0  0
 23 24  2  0  0  0  0
 24 25  1  0  0  0  0
 25 26  2  0  0  0  0
 26 27  1  0  0  0  0
 27 28  2  0  0  0  0
 28  2  1  0  0  0  0
 28 23  1  0  0  0  0
M  END
>  <CHROM.1>
146.29852988,57.76857228,48.54540183,114.61248438,-179.92338781,43.55907307
-45.99476315,4.90095803,0.67888853,-0.56851276,-1.92568302

>  <Name>
design_6

>  <RI>
0

>  <Rbt.Current_Directory>
/home/ziqiaoxu/icml18-jtnn/VAEdesign

>  <Rbt.Executable>
rbdock ($Id: //depot/dev/client3/rdock/2013.1/src/exe/rbdock.cxx#4 $)

>  <Rbt.Library>
libRbt.so (2013.1, Build901 2013/11/27)

>  <Rbt.Parameter_File>
/export/apps/rDock/src/rDock_2013.1_src//data/scripts/dock.prm

>  <Rbt.Receptor>
/home/ziqiaoxu/icml18-jtnn/VAEdesign/targets/RdRp-SARS-CoV-2/pocket_docking.prm

>  <SCORE>
-20.4296

>  <SCORE.INTER>
-18.2539

>  <SCORE.INTER.CONST>
1

>  <SCORE.INTER.POLAR>
-0.894427

>  <SCORE.INTER.REPUL>
0

>  <SCORE.INTER.ROT>
5

>  <SCORE.INTER.VDW>
-25.6128

>  <SCORE.INTER.norm>
-0.651925

>  <SCORE.INTRA>
-2.1757

>  <SCORE.INTRA.DIHEDRAL>
-5.27648

>  <SCORE.INTRA.DIHEDRAL.0>
11.6238

>  <SCORE.INTRA.POLAR>
0.0490348

>  <SCORE.INTRA.POLAR.0>
-0.0490348

>  <SCORE.INTRA.REPUL>
0

>  <SCORE.INTRA.REPUL.0>
0

>  <SCORE.INTRA.VDW>
0.295825

>  <SCORE.INTRA.VDW.0>
-1.47344

>  <SCORE.INTRA.norm>
-0.0777035

>  <SCORE.RESTR>
0

>  <SCORE.RESTR.CAVITY>
0

>  <SCORE.RESTR.norm>
0

>  <SCORE.SYSTEM>
0

>  <SCORE.SYSTEM.CONST>
0

>  <SCORE.SYSTEM.DIHEDRAL>
0

>  <SCORE.SYSTEM.norm>
0

>  <SCORE.heavy>
28

>  <SCORE.norm>
-0.729628

$$$$
design_11
 OpenBabel05252019093D

 24 25  0  0  0  0  0  0  0  0999 V2000
   39.0070  -48.9896    6.5488 C   0  0  0  0  0  0  0  0  0  0  0  0
   39.8820  -47.8531    7.0722 C   0  0  0  0  0  0  0  0  0  0  0  0
   40.7572  -47.3760    6.3268 O   0  0  0  0  0  0  0  0  0  0  0  0
   39.6576  -47.3991    8.3718 N   0  0  0  0  0  0  0  0  0  0  0  0
   40.3908  -46.3645    8.9952 C   0  0  0  0  0  0  0  0  0  0  0  0
   40.0243  -45.7233   10.1287 C   0  0  0  0  0  0  0  0  0  0  0  0
   40.8209  -44.7335   10.6885 C   0  0  0  0  0  0  0  0  0  0  0  0
   41.9968  -44.4061   10.0752 C   0  0  0  0  0  0  0  0  0  0  0  0
   42.4087  -45.0311    8.9211 C   0  0  0  0  0  0  0  0  0  0  0  0
   43.6945  -44.6343    8.2991 C   0  0  0  0  0  0  0  0  0  0  0  0
   44.4162  -43.8546    8.9565 O   0  0  0  0  0  0  0  0  0  0  0  0
   44.1128  -45.0517    7.1093 O   0  0  0  0  0  0  0  0  0  0  0  0
   45.2121  -44.9823    6.3222 C   0  0  0  0  0  0  0  0  0  0  0  0
   45.2180  -45.5379    4.9535 C   0  0  0  0  0  0  0  0  0  0  0  0
   46.3303  -45.6259    4.1894 O   0  0  0  0  0  0  0  0  0  0  0  0
   46.5352  -46.0530    2.8966 C   0  0  0  0  0  0  0  0  0  0  0  0
   47.7523  -46.4167    2.3681 C   0  0  0  0  0  0  0  0  0  0  0  0
   47.8811  -46.8375    1.0481 C   0  0  0  0  0  0  0  0  0  0  0  0
   46.7987  -46.9119    0.2042 C   0  0  0  0  0  0  0  0  0  0  0  0
   45.5727  -46.5517    0.7176 C   0  0  0  0  0  0  0  0  0  0  0  0
   44.4329  -46.6281   -0.1638 C   0  0  0  0  0  0  0  0  0  0  0  0
   43.5289  -46.6930   -0.8863 N   0  0  0  0  0  0  0  0  0  0  0  0
   45.4381  -46.1360    2.0170 C   0  0  0  0  0  0  0  0  0  0  0  0
   41.6076  -45.9900    8.4053 C   0  0  0  0  0  0  0  0  0  0  0  0
  1  2  1  0  0  0  0
  2  3  2  0  0  0  0
  2  4  1  0  0  0  0
  4  5  1  0  0  0  0
  5  6  2  0  0  0  0
  6  7  1  0  0  0  0
  7  8  2  0  0  0  0
  8  9  1  0  0  0  0
  9 10  1  0  0  0  0
  9 24  2  0  0  0  0
 10 11  2  0  0  0  0
 10 12  1  0  0  0  0
 12 13  1  0  0  0  0
 13 14  1  0  0  0  0
 14 15  1  0  0  0  0
 15 16  1  0  0  0  0
 16 17  2  0  0  0  0
 17 18  1  0  0  0  0
 18 19  2  0  0  0  0
 19 20  1  0  0  0  0
 20 21  1  0  0  0  0
 20 23  2  0  0  0  0
 21 22  3  0  0  0  0
 23 16  1  0  0  0  0
 24  5  1  0  0  0  0
M  END
>  <CHROM.1>
165.51466196,8.38264126,-173.44295884,-175.25518394,-172.31608617,-177.04395056
-161.85044582,43.45552594,-46.07492826,5.61785349,2.22119098,0.43615999,1.19439039

>  <Name>
design_11

>  <RI>
0

>  <Rbt.Current_Directory>
/home/ziqiaoxu/icml18-jtnn/VAEdesign

>  <Rbt.Executable>
rbdock ($Id: //depot/dev/client3/rdock/2013.1/src/exe/rbdock.cxx#4 $)

>  <Rbt.Library>
libRbt.so (2013.1, Build901 2013/11/27)

>  <Rbt.Parameter_File>
/export/apps/rDock/src/rDock_2013.1_src//data/scripts/dock.prm

>  <Rbt.Receptor>
/home/ziqiaoxu/icml18-jtnn/VAEdesign/targets/RdRp-SARS-CoV-2/pocket_docking.prm

>  <SCORE>
-10.5222

>  <SCORE.INTER>
-13.2001

>  <SCORE.INTER.CONST>
1

>  <SCORE.INTER.POLAR>
0

>  <SCORE.INTER.REPUL>
0.002455

>  <SCORE.INTER.ROT>
7

>  <SCORE.INTER.VDW>
-25.6123

>  <SCORE.INTER.norm>
-0.550003

>  <SCORE.INTRA>
2.67787

>  <SCORE.INTRA.DIHEDRAL>
0.298266

>  <SCORE.INTRA.DIHEDRAL.0>
2.00079

>  <SCORE.INTRA.POLAR>
0

>  <SCORE.INTRA.POLAR.0>
0

>  <SCORE.INTRA.REPUL>
0.114794

>  <SCORE.INTRA.REPUL.0>
0

>  <SCORE.INTRA.VDW>
1.95477

>  <SCORE.INTRA.VDW.0>
-1.38644

>  <SCORE.INTRA.norm>
0.111578

>  <SCORE.RESTR>
0

>  <SCORE.RESTR.CAVITY>
0

>  <SCORE.RESTR.norm>
0

>  <SCORE.SYSTEM>
0

>  <SCORE.SYSTEM.CONST>
0

>  <SCORE.SYSTEM.DIHEDRAL>
0

>  <SCORE.SYSTEM.norm>
0

>  <SCORE.heavy>
24

>  <SCORE.norm>
-0.438425

$$$$
design_5
 OpenBabel05252019093D

 22 24  0  0  0  0  0  0  0  0999 V2000
   45.5955  -46.2433   -0.0003 C   0  0  0  0  0  0  0  0  0  0  0  0
   46.6242  -46.5266    1.0413 C   0  0  0  0  0  0  0  0  0  0  0  0
   47.5052  -47.5704    0.8774 C   0  0  0  0  0  0  0  0  0  0  0  0
   48.4509  -47.8268    1.8391 C   0  0  0  0  0  0  0  0  0  0  0  0
   48.5094  -47.0399    2.9556 C   0  0  0  0  0  0  0  0  0  0  0  0
   47.6168  -46.0072    3.0890 C   0  0  0  0  0  0  0  0  0  0  0  0
   47.6746  -45.1517    4.2897 C   0  0  0  0  0  0  0  0  0  0  0  0
   46.4781  -45.3059    5.1061 N   0  0  0  0  0  0  0  0  0  0  0  0
   46.3052  -44.5382    6.2721 C   0  0  0  0  0  0  0  0  0  0  0  0
   47.1710  -43.7125    6.6251 O   0  0  0  0  0  0  0  0  0  0  0  0
   45.0906  -44.7200    7.0709 C   0  0  0  0  0  0  0  0  0  0  0  0
   44.7587  -44.1013    8.2440 C   0  0  0  0  0  0  0  0  0  0  0  0
   43.5716  -44.4300    8.8026 C   0  0  0  0  0  0  0  0  0  0  0  0
   42.8060  -45.3476    8.1534 C   0  0  0  0  0  0  0  0  0  0  0  0
   41.4691  -45.8831    8.5453 C   0  0  0  0  0  0  0  0  0  0  0  0
   40.8274  -45.3957    9.6612 C   0  0  0  0  0  0  0  0  0  0  0  0
   39.3891  -46.3193    9.6590 S   0  0  0  0  0  0  0  0  0  0  0  0
   39.6905  -47.2514    8.2617 C   0  0  0  0  0  0  0  0  0  0  0  0
   38.8861  -48.3169    7.5804 C   0  0  0  0  0  0  0  0  0  0  0  0
   40.8706  -46.8083    7.8724 N   0  0  0  0  0  0  0  0  0  0  0  0
   43.7408  -45.7365    6.7870 S   0  0  0  0  0  0  0  0  0  0  0  0
   46.7016  -45.7676    2.1473 N   0  0  0  0  0  0  0  0  0  0  0  0
  1  2  1  0  0  0  0
  2  3  2  0  0  0  0
  3  4  1  0  0  0  0
  4  5  2  0  0  0  0
  5  6  1  0  0  0  0
  6  7  1  0  0  0  0
  6 22  2  0  0  0  0
  7  8  1  0  0  0  0
  8  9  1  0  0  0  0
  9 10  2  0  0  0  0
  9 11  1  0  0  0  0
 11 12  2  0  0  0  0
 12 13  1  0  0  0  0
 13 14  2  0  0  0  0
 14 15  1  0  0  0  0
 14 21  1  0  0  0  0
 15 16  2  0  0  0  0
 16 17  1  0  0  0  0
 17 18  1  0  0  0  0
 18 19  1  0  0  0  0
 18 20  2  0  0  0  0
 20 15  1  0  0  0  0
 21 11  1  0  0  0  0
 22  2  1  0  0  0  0
M  END
>  <CHROM.1>
-114.09855556,-177.43067508,178.05676139,3.37703738,44.20716547,-45.92152634
5.93537282,0.65158795,-0.42154543,-2.06906307

>  <Name>
design_5

>  <RI>
0

>  <Rbt.Current_Directory>
/home/ziqiaoxu/icml18-jtnn/VAEdesign

>  <Rbt.Executable>
rbdock ($Id: //depot/dev/client3/rdock/2013.1/src/exe/rbdock.cxx#4 $)

>  <Rbt.Library>
libRbt.so (2013.1, Build901 2013/11/27)

>  <Rbt.Parameter_File>
/export/apps/rDock/src/rDock_2013.1_src//data/scripts/dock.prm

>  <Rbt.Receptor>
/home/ziqiaoxu/icml18-jtnn/VAEdesign/targets/RdRp-SARS-CoV-2/pocket_docking.prm

>  <SCORE>
-15.7419

>  <SCORE.INTER>
-16.2082

>  <SCORE.INTER.CONST>
1

>  <SCORE.INTER.POLAR>
0

>  <SCORE.INTER.REPUL>
0

>  <SCORE.INTER.ROT>
4

>  <SCORE.INTER.VDW>
-25.6082

>  <SCORE.INTER.norm>
-0.736735

>  <SCORE.INTRA>
0.466321

>  <SCORE.INTRA.DIHEDRAL>
0.0531171

>  <SCORE.INTRA.DIHEDRAL.0>
1.92269

>  <SCORE.INTRA.POLAR>
0

>  <SCORE.INTRA.POLAR.0>
0

>  <SCORE.INTRA.REPUL>
0

>  <SCORE.INTRA.REPUL.0>
0

>  <SCORE.INTRA.VDW>
0.439763

>  <SCORE.INTRA.VDW.0>
-2.13972

>  <SCORE.INTRA.norm>
0.0211964

>  <SCORE.RESTR>
0

>  <SCORE.RESTR.CAVITY>
0

>  <SCORE.RESTR.norm>
0

>  <SCORE.SYSTEM>
0

>  <SCORE.SYSTEM.CONST>
0

>  <SCORE.SYSTEM.DIHEDRAL>
0

>  <SCORE.SYSTEM.norm>
0

>  <SCORE.heavy>
22

>  <SCORE.norm>
-0.715539

$$$$
design_12
 OpenBabel05252019093D

 25 27  0  0  0  0  0  0  0  0999 V2000
   46.9299  -45.8935    3.4938 C   0  0  0  0  0  0  0  0  0  0  0  0
   46.4449  -45.3750    4.8157 C   0  0  0  0  0  0  0  0  0  0  0  0
   47.0916  -44.5245    5.6380 N   0  0  0  0  0  0  0  0  0  0  0  0
   46.3470  -44.2952    6.7175 N   0  0  0  0  0  0  0  0  0  0  0  0
   45.1874  -45.0079    6.6053 C   0  0  0  0  0  0  0  0  0  0  0  0
   44.1092  -45.0262    7.5827 C   0  0  0  0  0  0  0  0  0  0  0  0
   44.2642  -44.3591    8.7695 C   0  0  0  0  0  0  0  0  0  0  0  0
   43.2349  -44.3802    9.6929 C   0  0  0  0  0  0  0  0  0  0  0  0
   42.0559  -45.0504    9.4606 C   0  0  0  0  0  0  0  0  0  0  0  0
   40.9266  -45.0924   10.4247 C   0  0  0  0  0  0  0  0  0  0  0  0
   40.0036  -46.1690   10.0740 N   0  0  0  0  0  0  0  0  0  0  0  0
   38.9432  -46.0035    9.1661 C   0  0  0  0  0  0  0  0  0  0  0  0
   38.7203  -44.8943    8.5775 O   0  0  0  0  0  0  0  0  0  0  0  0
   38.0433  -47.1284    8.8569 C   0  0  0  0  0  0  0  0  0  0  0  0
   38.2914  -47.7758    7.6507 O   0  0  0  0  0  0  0  0  0  0  0  0
   38.4361  -47.1893    6.4231 C   0  0  0  0  0  0  0  0  0  0  0  0
   39.6771  -47.0725    5.8157 C   0  0  0  0  0  0  0  0  0  0  0  0
   39.8324  -46.4875    4.5971 C   0  0  0  0  0  0  0  0  0  0  0  0
   38.7652  -45.9775    3.8964 C   0  0  0  0  0  0  0  0  0  0  0  0
   38.8529  -45.3894    2.6917 F   0  0  0  0  0  0  0  0  0  0  0  0
   37.5203  -46.0918    4.5002 C   0  0  0  0  0  0  0  0  0  0  0  0
   37.3594  -46.6881    5.7435 C   0  0  0  0  0  0  0  0  0  0  0  0
   41.9208  -45.7215    8.2472 C   0  0  0  0  0  0  0  0  0  0  0  0
   42.9424  -45.7008    7.3304 C   0  0  0  0  0  0  0  0  0  0  0  0
   45.2820  -45.6550    5.4320 N   0  0  0  0  0  0  0  0  0  0  0  0
  1  2  1  0  0  0  0
  2  3  2  0  0  0  0
  3  4  1  0  0  0  0
  4  5  1  0  0  0  0
  5  6  1  0  0  0  0
  5 25  2  0  0  0  0
  6  7  2  0  0  0  0
  7  8  1  0  0  0  0
  8  9  2  0  0  0  0
  9 10  1  0  0  0  0
  9 23  1  0  0  0  0
 10 11  1  0  0  0  0
 11 12  1  0  0  0  0
 12 13  2  0  0  0  0
 12 14  1  0  0  0  0
 14 15  1  0  0  0  0
 15 16  1  0  0  0  0
 16 17  2  0  0  0  0
 17 18  1  0  0  0  0
 18 19  2  0  0  0  0
 19 20  1  0  0  0  0
 19 21  1  0  0  0  0
 21 22  2  0  0  0  0
 22 16  1  0  0  0  0
 23 24  2  0  0  0  0
 24  6  1  0  0  0  0
 25  2  1  0  0  0  0
M  END
>  <CHROM.1>
-4.70083193,-163.72523310,-87.28936896,-101.37876086,-50.66729488,105.91769986
41.60013528,-45.71903946,6.84637682,0.06944799,-0.19831254,-1.66338512

>  <Name>
design_12

>  <RI>
0

>  <Rbt.Current_Directory>
/home/ziqiaoxu/icml18-jtnn/VAEdesign

>  <Rbt.Executable>
rbdock ($Id: //depot/dev/client3/rdock/2013.1/src/exe/rbdock.cxx#4 $)

>  <Rbt.Library>
libRbt.so (2013.1, Build901 2013/11/27)

>  <Rbt.Parameter_File>
/export/apps/rDock/src/rDock_2013.1_src//data/scripts/dock.prm

>  <Rbt.Receptor>
/home/ziqiaoxu/icml18-jtnn/VAEdesign/targets/RdRp-SARS-CoV-2/pocket_docking.prm

>  <SCORE>
-16.6957

>  <SCORE.INTER>
-18.6132

>  <SCORE.INTER.CONST>
1

>  <SCORE.INTER.POLAR>
-1.29567

>  <SCORE.INTER.REPUL>
0

>  <SCORE.INTER.ROT>
6

>  <SCORE.INTER.VDW>
-25.608

>  <SCORE.INTER.norm>
-0.744529

>  <SCORE.INTRA>
1.91754

>  <SCORE.INTRA.DIHEDRAL>
4.81806

>  <SCORE.INTRA.DIHEDRAL.0>
3.34512

>  <SCORE.INTRA.POLAR>
0

>  <SCORE.INTRA.POLAR.0>
0

>  <SCORE.INTRA.REPUL>
0

>  <SCORE.INTRA.REPUL.0>
0

>  <SCORE.INTRA.VDW>
-0.491489

>  <SCORE.INTRA.VDW.0>
-1.91715

>  <SCORE.INTRA.norm>
0.0767016

>  <SCORE.RESTR>
0

>  <SCORE.RESTR.CAVITY>
0

>  <SCORE.RESTR.norm>
0

>  <SCORE.SYSTEM>
0

>  <SCORE.SYSTEM.CONST>
0

>  <SCORE.SYSTEM.DIHEDRAL>
0

>  <SCORE.SYSTEM.norm>
0

>  <SCORE.heavy>
25

>  <SCORE.norm>
-0.667828

$$$$
design_8
 OpenBabel05252019093D

 24 25  0  0  0  0  0  0  0  0999 V2000
   47.0754  -43.7580    5.9302 C   0  0  0  0  0  0  0  0  0  0  0  0
   45.7807  -44.3866    6.2859 C   0  0  0  0  0  0  0  0  0  0  0  0
   45.0549  -44.9726    5.2709 C   0  0  0  0  0  0  0  0  0  0  0  0
   43.8465  -45.5622    5.5950 C   0  0  0  0  0  0  0  0  0  0  0  0
   43.3780  -45.5662    6.8937 C   0  0  0  0  0  0  0  0  0  0  0  0
   42.1214  -46.1987    7.2361 C   0  0  0  0  0  0  0  0  0  0  0  0
   41.7397  -46.2078    8.4133 O   0  0  0  0  0  0  0  0  0  0  0  0
   41.3403  -46.8031    6.2249 N   0  0  0  0  0  0  0  0  0  0  0  0
   40.0832  -47.4376    6.5787 C   0  0  0  0  0  0  0  0  0  0  0  0
   38.9907  -46.4644    6.3322 C   0  0  0  0  0  0  0  0  0  0  0  0
   37.8530  -46.7432    5.6149 C   0  0  0  0  0  0  0  0  0  0  0  0
   36.8511  -45.8340    5.4075 C   0  0  0  0  0  0  0  0  0  0  0  0
   36.9282  -44.5198    5.9324 C   0  0  0  0  0  0  0  0  0  0  0  0
   35.8546  -43.6401    5.7162 N   0  0  0  0  0  0  0  0  0  0  0  0
   35.7751  -42.3307    6.1823 C   0  0  0  0  0  0  0  0  0  0  0  0
   36.6740  -41.7444    6.8532 O   0  0  0  0  0  0  0  0  0  0  0  0
   34.5756  -41.5772    5.8809 N   0  0  0  0  0  0  0  0  0  0  0  0
   34.4783  -40.2160    6.3573 C   0  0  0  0  0  0  0  0  0  0  0  0
   35.5932  -39.3904    5.7533 C   0  0  0  0  0  0  0  0  0  0  0  0
   34.5590  -40.2173    7.8678 C   0  0  0  0  0  0  0  0  0  0  0  0
   38.0613  -44.2515    6.6432 C   0  0  0  0  0  0  0  0  0  0  0  0
   39.0865  -45.1909    6.8517 C   0  0  0  0  0  0  0  0  0  0  0  0
   44.1115  -44.9757    7.9108 C   0  0  0  0  0  0  0  0  0  0  0  0
   45.3320  -44.3812    7.5776 C   0  0  0  0  0  0  0  0  0  0  0  0
  1  2  1  0  0  0  0
  2  3  2  0  0  0  0
  3  4  1  0  0  0  0
  4  5  2  0  0  0  0
  5  6  1  0  0  0  0
  5 23  1  0  0  0  0
  6  7  2  0  0  0  0
  6  8  1  0  0  0  0
  8  9  1  0  0  0  0
  9 10  1  0  0  0  0
 10 11  2  0  0  0  0
 11 12  1  0  0  0  0
 12 13  2  0  0  0  0
 13 14  1  0  0  0  0
 13 21  1  0  0  0  0
 14 15  1  0  0  0  0
 15 16  2  0  0  0  0
 15 17  1  0  0  0  0
 17 18  1  0  0  0  0
 18 19  1  0  0  0  0
 18 20  1  0  0  0  0
 21 22  2  0  0  0  0
 22 10  1  0  0  0  0
 23 24  2  0  0  0  0
 24  2  1  0  0  0  0
M  END
>  <CHROM.1>
178.64670348,96.43966559,129.89695528,179.05869150,60.97980971,39.71083768
-44.19729370,6.47736082,-0.36609315,-0.04554511,0.03795601

>  <Name>
design_8

>  <RI>
0

>  <Rbt.Current_Directory>
/home/ziqiaoxu/icml18-jtnn/VAEdesign

>  <Rbt.Executable>
rbdock ($Id: //depot/dev/client3/rdock/2013.1/src/exe/rbdock.cxx#4 $)

>  <Rbt.Library>
libRbt.so (2013.1, Build901 2013/11/27)

>  <Rbt.Parameter_File>
/export/apps/rDock/src/rDock_2013.1_src//data/scripts/dock.prm

>  <Rbt.Receptor>
/home/ziqiaoxu/icml18-jtnn/VAEdesign/targets/RdRp-SARS-CoV-2/pocket_docking.prm

>  <SCORE>
-16.7169

>  <SCORE.INTER>
-18.5388

>  <SCORE.INTER.CONST>
1

>  <SCORE.INTER.POLAR>
-0.979796

>  <SCORE.INTER.REPUL>
0

>  <SCORE.INTER.ROT>
5

>  <SCORE.INTER.VDW>
-25.6075

>  <SCORE.INTER.norm>
-0.772451

>  <SCORE.INTRA>
1.82192

>  <SCORE.INTRA.DIHEDRAL>
-2.69739

>  <SCORE.INTRA.DIHEDRAL.0>
5.83577

>  <SCORE.INTRA.POLAR>
0

>  <SCORE.INTRA.POLAR.0>
0

>  <SCORE.INTRA.REPUL>
0

>  <SCORE.INTRA.REPUL.0>
0

>  <SCORE.INTRA.VDW>
3.17062

>  <SCORE.INTRA.VDW.0>
-1.05751

>  <SCORE.INTRA.norm>
0.0759134

>  <SCORE.RESTR>
0

>  <SCORE.RESTR.CAVITY>
0

>  <SCORE.RESTR.norm>
0

>  <SCORE.SYSTEM>
0

>  <SCORE.SYSTEM.CONST>
0

>  <SCORE.SYSTEM.DIHEDRAL>
0

>  <SCORE.SYSTEM.norm>
0

>  <SCORE.heavy>
24

>  <SCORE.norm>
-0.696537

$$$$
design_4
 OpenBabel05252019093D

 24 27  0  0  0  0  0  0  0  0999 V2000
   35.8675  -41.9462    5.8306 C   0  0  0  0  0  0  0  0  0  0  0  0
   36.4477  -43.3192    5.9496 C   0  0  0  0  0  0  0  0  0  0  0  0
   35.7815  -44.4063    5.4374 C   0  0  0  0  0  0  0  0  0  0  0  0
   36.3023  -45.6700    5.5397 C   0  0  0  0  0  0  0  0  0  0  0  0
   37.5385  -45.9367    6.1678 C   0  0  0  0  0  0  0  0  0  0  0  0
   37.9637  -47.3173    6.2044 C   0  0  0  0  0  0  0  0  0  0  0  0
   37.3635  -48.3168    5.4538 N   0  0  0  0  0  0  0  0  0  0  0  0
   37.9333  -49.4347    5.6493 O   0  0  0  0  0  0  0  0  0  0  0  0
   38.9032  -49.2492    6.5049 C   0  0  0  0  0  0  0  0  0  0  0  0
   39.6653  -50.1519    6.9147 O   0  0  0  0  0  0  0  0  0  0  0  0
   38.9287  -47.9134    6.8604 N   0  0  0  0  0  0  0  0  0  0  0  0
   39.8862  -47.4279    7.8054 C   0  0  0  0  0  0  0  0  0  0  0  0
   41.0907  -46.8099    7.1785 C   0  0  0  0  0  0  0  0  0  0  0  0
   41.4780  -46.7413    5.9095 N   0  0  0  0  0  0  0  0  0  0  0  0
   42.6131  -46.0952    5.8262 O   0  0  0  0  0  0  0  0  0  0  0  0
   43.0015  -45.7251    7.0140 C   0  0  0  0  0  0  0  0  0  0  0  0
   44.2251  -44.9802    7.3198 C   0  0  0  0  0  0  0  0  0  0  0  0
   44.6255  -44.3911    8.4744 C   0  0  0  0  0  0  0  0  0  0  0  0
   45.8178  -43.7614    8.4785 C   0  0  0  0  0  0  0  0  0  0  0  0
   46.5265  -43.7721    7.3055 C   0  0  0  0  0  0  0  0  0  0  0  0
   45.5138  -44.6507    6.2522 S   0  0  0  0  0  0  0  0  0  0  0  0
   42.0835  -46.1521    7.8619 N   0  0  0  0  0  0  0  0  0  0  0  0
   38.1780  -44.8502    6.6660 C   0  0  0  0  0  0  0  0  0  0  0  0
   37.6491  -43.5570    6.5633 C   0  0  0  0  0  0  0  0  0  0  0  0
  1  2  1  0  0  0  0
  2  3  2  0  0  0  0
  3  4  1  0  0  0  0
  4  5  2  0  0  0  0
  5  6  1  0  0  0  0
  5 23  1  0  0  0  0
  6  7  2  0  0  0  0
  7  8  1  0  0  0  0
  8  9  1  0  0  0  0
  9 10  2  0  0  0  0
  9 11  1  0  0  0  0
 11 12  1  0  0  0  0
 11  6  1  0  0  0  0
 12 13  1  0  0  0  0
 13 14  2  0  0  0  0
 14 15  1  0  0  0  0
 15 16  1  0  0  0  0
 16 17  1  0  0  0  0
 16 22  2  0  0  0  0
 17 18  2  0  0  0  0
 18 19  1  0  0  0  0
 19 20  2  0  0  0  0
 20 21  1  0  0  0  0
 21 17  1  0  0  0  0
 22 13  1  0  0  0  0
 23 24  2  0  0  0  0
 24  2  1  0  0  0  0
M  END
>  <CHROM.1>
12.55712961,-83.71839329,-6.87326820,169.65559610,40.49347010,-45.92844940
6.59525960,2.96846892,0.15393339,3.13261379

>  <Name>
design_4

>  <RI>
0

>  <Rbt.Current_Directory>
/home/ziqiaoxu/icml18-jtnn/VAEdesign

>  <Rbt.Executable>
rbdock ($Id: //depot/dev/client3/rdock/2013.1/src/exe/rbdock.cxx#4 $)

>  <Rbt.Library>
libRbt.so (2013.1, Build901 2013/11/27)

>  <Rbt.Parameter_File>
/export/apps/rDock/src/rDock_2013.1_src//data/scripts/dock.prm

>  <Rbt.Receptor>
/home/ziqiaoxu/icml18-jtnn/VAEdesign/targets/RdRp-SARS-CoV-2/pocket_docking.prm

>  <SCORE>
-15.0389

>  <SCORE.INTER>
-15.2871

>  <SCORE.INTER.CONST>
1

>  <SCORE.INTER.POLAR>
0

>  <SCORE.INTER.REPUL>
0.183181

>  <SCORE.INTER.ROT>
4

>  <SCORE.INTER.VDW>
-25.603

>  <SCORE.INTER.norm>
-0.636962

>  <SCORE.INTRA>
0.248151

>  <SCORE.INTRA.DIHEDRAL>
0.733717

>  <SCORE.INTRA.DIHEDRAL.0>
3.84745

>  <SCORE.INTRA.POLAR>
0

>  <SCORE.INTRA.POLAR.0>
0

>  <SCORE.INTRA.REPUL>
0

>  <SCORE.INTRA.REPUL.0>
0

>  <SCORE.INTRA.VDW>
-0.118707

>  <SCORE.INTRA.VDW.0>
-2.33872

>  <SCORE.INTRA.norm>
0.0103396

>  <SCORE.RESTR>
0

>  <SCORE.RESTR.CAVITY>
0

>  <SCORE.RESTR.norm>
0

>  <SCORE.SYSTEM>
0

>  <SCORE.SYSTEM.CONST>
0

>  <SCORE.SYSTEM.DIHEDRAL>
0

>  <SCORE.SYSTEM.norm>
0

>  <SCORE.heavy>
24

>  <SCORE.norm>
-0.626623

$$$$
design_15
 OpenBabel05252019093D

 25 27  0  0  0  0  0  0  0  0999 V2000
   39.9864  -46.1732   10.7660 N   0  0  0  0  0  0  0  0  0  0  0  0
   40.7042  -45.0829   10.2022 C   0  0  0  0  0  0  0  0  0  0  0  0
   40.6752  -43.9701   10.8292 O   0  0  0  0  0  0  0  0  0  0  0  0
   41.4474  -45.2294    8.9518 C   0  0  0  0  0  0  0  0  0  0  0  0
   41.1231  -46.2045    8.0715 C   0  0  0  0  0  0  0  0  0  0  0  0
   41.8010  -46.3759    6.8669 C   0  0  0  0  0  0  0  0  0  0  0  0
   42.8432  -45.5183    6.5657 C   0  0  0  0  0  0  0  0  0  0  0  0
   43.5219  -45.6706    5.3458 N   0  0  0  0  0  0  0  0  0  0  0  0
   44.9820  -45.4759    5.2345 C   0  0  0  0  0  0  0  0  0  0  0  0
   45.4823  -45.1919    6.3848 O   0  0  0  0  0  0  0  0  0  0  0  0
   45.6525  -45.5853    4.1092 N   0  0  0  0  0  0  0  0  0  0  0  0
   46.3854  -45.7049    2.8791 C   0  0  0  0  0  0  0  0  0  0  0  0
   45.4795  -45.8756    1.7202 C   0  0  0  0  0  0  0  0  0  0  0  0
   44.2445  -45.2676    1.7546 C   0  0  0  0  0  0  0  0  0  0  0  0
   43.3508  -45.3677    0.6945 C   0  0  0  0  0  0  0  0  0  0  0  0
   43.7456  -46.0939   -0.3895 C   0  0  0  0  0  0  0  0  0  0  0  0
   44.9648  -46.7184   -0.4717 C   0  0  0  0  0  0  0  0  0  0  0  0
   45.8458  -46.5962    0.6274 C   0  0  0  0  0  0  0  0  0  0  0  0
   47.0940  -47.2587    0.6133 N   0  0  0  0  0  0  0  0  0  0  0  0
   47.6170  -48.0134   -0.3712 C   0  0  0  0  0  0  0  0  0  0  0  0
   48.8612  -48.4587   -0.0328 C   0  0  0  0  0  0  0  0  0  0  0  0
   49.0930  -47.9417    1.2252 C   0  0  0  0  0  0  0  0  0  0  0  0
   48.0177  -47.2267    1.5867 N   0  0  0  0  0  0  0  0  0  0  0  0
   43.1753  -44.5323    7.4491 C   0  0  0  0  0  0  0  0  0  0  0  0
   42.4911  -44.3649    8.6552 C   0  0  0  0  0  0  0  0  0  0  0  0
  1  2  1  0  0  0  0
  2  3  2  0  0  0  0
  2  4  1  0  0  0  0
  4  5  2  0  0  0  0
  5  6  1  0  0  0  0
  6  7  2  0  0  0  0
  7  8  1  0  0  0  0
  7 24  1  0  0  0  0
  8  9  1  0  0  0  0
  9 10  2  0  0  0  0
  9 11  1  0  0  0  0
 11 12  1  0  0  0  0
 12 13  1  0  0  0  0
 13 14  2  0  0  0  0
 14 15  1  0  0  0  0
 15 16  2  0  0  0  0
 16 17  1  0  0  0  0
 17 18  2  0  0  0  0
 18 19  1  0  0  0  0
 18 13  1  0  0  0  0
 19 20  1  0  0  0  0
 20 21  2  0  0  0  0
 21 22  1  0  0  0  0
 22 23  2  0  0  0  0
 23 19  1  0  0  0  0
 24 25  2  0  0  0  0
 25  4  1  0  0  0  0
M  END
>  <CHROM.1>
22.94556425,-142.18990330,-40.33919520,32.17297915,179.81869266,44.32461911
-45.98318827,4.46296962,2.14116761,-0.24276829,1.51237887

>  <Name>
design_15

>  <RI>
0

>  <Rbt.Current_Directory>
/home/ziqiaoxu/icml18-jtnn/VAEdesign

>  <Rbt.Executable>
rbdock ($Id: //depot/dev/client3/rdock/2013.1/src/exe/rbdock.cxx#4 $)

>  <Rbt.Library>
libRbt.so (2013.1, Build901 2013/11/27)

>  <Rbt.Parameter_File>
/export/apps/rDock/src/rDock_2013.1_src//data/scripts/dock.prm

>  <Rbt.Receptor>
/home/ziqiaoxu/icml18-jtnn/VAEdesign/targets/RdRp-SARS-CoV-2/pocket_docking.prm

>  <SCORE>
-23.7572

>  <SCORE.INTER>
-20.7252

>  <SCORE.INTER.CONST>
1

>  <SCORE.INTER.POLAR>
-2.30733

>  <SCORE.INTER.REPUL>
0.464469

>  <SCORE.INTER.ROT>
5

>  <SCORE.INTER.VDW>
-25.6027

>  <SCORE.INTER.norm>
-0.829009

>  <SCORE.INTRA>
-3.03198

>  <SCORE.INTRA.DIHEDRAL>
-10.192

>  <SCORE.INTRA.DIHEDRAL.0>
18.0876

>  <SCORE.INTRA.POLAR>
0

>  <SCORE.INTRA.POLAR.0>
0

>  <SCORE.INTRA.REPUL>
0

>  <SCORE.INTRA.REPUL.0>
0

>  <SCORE.INTRA.VDW>
2.06401

>  <SCORE.INTRA.VDW.0>
-0.473101

>  <SCORE.INTRA.norm>
-0.121279

>  <SCORE.RESTR>
0

>  <SCORE.RESTR.CAVITY>
0

>  <SCORE.RESTR.norm>
0

>  <SCORE.SYSTEM>
0

>  <SCORE.SYSTEM.CONST>
0

>  <SCORE.SYSTEM.DIHEDRAL>
0

>  <SCORE.SYSTEM.norm>
0

>  <SCORE.heavy>
25

>  <SCORE.norm>
-0.950289

$$$$
design_10
 OpenBabel05252019093D

 22 24  0  0  0  0  0  0  0  0999 V2000
   41.8149  -44.3651   10.6525 C   0  0  0  0  0  0  0  0  0  0  0  0
   41.1449  -45.3104    9.7056 C   0  0  0  0  0  0  0  0  0  0  0  0
   39.9465  -45.8879   10.0738 C   0  0  0  0  0  0  0  0  0  0  0  0
   39.2713  -46.7662    9.2575 C   0  0  0  0  0  0  0  0  0  0  0  0
   39.7818  -47.1073    8.0130 C   0  0  0  0  0  0  0  0  0  0  0  0
   39.0286  -48.1926    6.9064 S   0  0  0  0  0  0  0  0  0  0  0  0
   38.4274  -49.3885    7.6151 O   0  0  0  0  0  0  0  0  0  0  0  0
   40.1516  -48.7872    6.0546 O   0  0  0  0  0  0  0  0  0  0  0  0
   37.8992  -47.4144    5.9082 N   0  0  0  0  0  0  0  0  0  0  0  0
   37.4864  -46.0765    5.9007 C   0  0  0  0  0  0  0  0  0  0  0  0
   36.2164  -45.7465    5.3846 C   0  0  0  0  0  0  0  0  0  0  0  0
   35.7688  -44.4564    5.3808 C   0  0  0  0  0  0  0  0  0  0  0  0
   36.5601  -43.4279    5.8898 C   0  0  0  0  0  0  0  0  0  0  0  0
   37.7772  -43.7702    6.3801 C   0  0  0  0  0  0  0  0  0  0  0  0
   38.2780  -45.0825    6.4037 C   0  0  0  0  0  0  0  0  0  0  0  0
   38.4695  -42.5403    6.8756 C   0  0  0  0  0  0  0  0  0  0  0  0
   37.4979  -41.4745    6.6050 C   0  0  0  0  0  0  0  0  0  0  0  0
   37.6563  -40.2464    6.8626 O   0  0  0  0  0  0  0  0  0  0  0  0
   36.3340  -42.0209    6.0032 N   0  0  0  0  0  0  0  0  0  0  0  0
   35.1261  -41.3296    5.5701 C   0  0  0  0  0  0  0  0  0  0  0  0
   40.9949  -46.5117    7.6605 C   0  0  0  0  0  0  0  0  0  0  0  0
   41.6651  -45.6328    8.4841 C   0  0  0  0  0  0  0  0  0  0  0  0
  1  2  1  0  0  0  0
  2  3  2  0  0  0  0
  3  4  1  0  0  0  0
  4  5  2  0  0  0  0
  5  6  1  0  0  0  0
  5 21  1  0  0  0  0
  6  7  2  0  0  0  0
  6  8  2  0  0  0  0
  6  9  1  0  0  0  0
  9 10  1  0  0  0  0
 10 11  2  0  0  0  0
 11 12  1  0  0  0  0
 12 13  2  0  0  0  0
 13 14  1  0  0  0  0
 14 15  2  0  0  0  0
 14 16  1  0  0  0  0
 15 10  1  0  0  0  0
 16 17  1  0  0  0  0
 17 18  2  0  0  0  0
 17 19  1  0  0  0  0
 19 20  1  0  0  0  0
 19 13  1  0  0  0  0
 21 22  2  0  0  0  0
 22  2  1  0  0  0  0
M  END
>  <CHROM.1>
-40.24286465,-2.41784915,-155.22976200,38.54081761,-45.26923427,7.13740909
-0.85174223,-0.71680628,0.19676216

>  <Name>
design_10

>  <RI>
0

>  <Rbt.Current_Directory>
/home/ziqiaoxu/icml18-jtnn/VAEdesign

>  <Rbt.Executable>
rbdock ($Id: //depot/dev/client3/rdock/2013.1/src/exe/rbdock.cxx#4 $)

>  <Rbt.Library>
libRbt.so (2013.1, Build901 2013/11/27)

>  <Rbt.Parameter_File>
/export/apps/rDock/src/rDock_2013.1_src//data/scripts/dock.prm

>  <Rbt.Receptor>
/home/ziqiaoxu/icml18-jtnn/VAEdesign/targets/RdRp-SARS-CoV-2/pocket_docking.prm

>  <SCORE>
-21.0754

>  <SCORE.INTER>
-17.9398

>  <SCORE.INTER.CONST>
1

>  <SCORE.INTER.POLAR>
-0.217639

>  <SCORE.INTER.REPUL>
0

>  <SCORE.INTER.ROT>
3

>  <SCORE.INTER.VDW>
-25.5999

>  <SCORE.INTER.norm>
-0.815447

>  <SCORE.INTRA>
-3.13554

>  <SCORE.INTRA.DIHEDRAL>
-6.1981

>  <SCORE.INTRA.DIHEDRAL.0>
10.7517

>  <SCORE.INTRA.POLAR>
0

>  <SCORE.INTRA.POLAR.0>
0

>  <SCORE.INTRA.REPUL>
0

>  <SCORE.INTRA.REPUL.0>
0

>  <SCORE.INTRA.VDW>
-0.0364879

>  <SCORE.INTRA.VDW.0>
-2.17639

>  <SCORE.INTRA.norm>
-0.142524

>  <SCORE.RESTR>
0

>  <SCORE.RESTR.CAVITY>
0

>  <SCORE.RESTR.norm>
0

>  <SCORE.SYSTEM>
0

>  <SCORE.SYSTEM.CONST>
0

>  <SCORE.SYSTEM.DIHEDRAL>
0

>  <SCORE.SYSTEM.norm>
0

>  <SCORE.heavy>
22

>  <SCORE.norm>
-0.957972

$$$$
design_3
 OpenBabel05252019093D

 25 28  0  0  0  0  0  0  0  0999 V2000
   48.8381  -44.9618    2.9906 C   0  0  0  0  0  0  0  0  0  0  0  0
   47.7434  -44.9939    3.9992 C   0  0  0  0  0  0  0  0  0  0  0  0
   46.6291  -45.7911    3.8374 C   0  0  0  0  0  0  0  0  0  0  0  0
   45.6130  -45.8219    4.7722 C   0  0  0  0  0  0  0  0  0  0  0  0
   45.6721  -45.0514    5.9131 C   0  0  0  0  0  0  0  0  0  0  0  0
   44.5960  -45.0694    6.9255 C   0  0  0  0  0  0  0  0  0  0  0  0
   44.5441  -44.3951    8.0782 N   0  0  0  0  0  0  0  0  0  0  0  0
   43.3922  -44.7044    8.6880 C   0  0  0  0  0  0  0  0  0  0  0  0
   42.8784  -44.2036   10.0039 C   0  0  0  0  0  0  0  0  0  0  0  0
   43.8267  -44.5120   11.0322 O   0  0  0  0  0  0  0  0  0  0  0  0
   45.0874  -43.9455   11.0504 C   0  0  0  0  0  0  0  0  0  0  0  0
   45.2592  -42.9665   10.2462 O   0  0  0  0  0  0  0  0  0  0  0  0
   46.1772  -44.4300   11.9373 C   0  0  0  0  0  0  0  0  0  0  0  0
   47.5398  -44.6121   11.3699 C   0  0  0  0  0  0  0  0  0  0  0  0
   46.7082  -45.8017   11.7033 C   0  0  0  0  0  0  0  0  0  0  0  0
   42.7473  -45.5690    7.8989 N   0  0  0  0  0  0  0  0  0  0  0  0
   41.4694  -46.1768    8.1428 C   0  0  0  0  0  0  0  0  0  0  0  0
   40.9488  -47.0412    7.2291 C   0  0  0  0  0  0  0  0  0  0  0  0
   39.7099  -47.6346    7.4584 C   0  0  0  0  0  0  0  0  0  0  0  0
   39.0635  -47.3142    8.6127 C   0  0  0  0  0  0  0  0  0  0  0  0
   39.6267  -46.4401    9.5005 C   0  0  0  0  0  0  0  0  0  0  0  0
   40.8286  -45.8724    9.2651 N   0  0  0  0  0  0  0  0  0  0  0  0
   43.4791  -45.7846    6.8380 N   0  0  0  0  0  0  0  0  0  0  0  0
   46.7853  -44.2556    6.0738 C   0  0  0  0  0  0  0  0  0  0  0  0
   47.8041  -44.2217    5.1411 C   0  0  0  0  0  0  0  0  0  0  0  0
  1  2  1  0  0  0  0
  2  3  2  0  0  0  0
  3  4  1  0  0  0  0
  4  5  2  0  0  0  0
  5  6  1  0  0  0  0
  5 24  1  0  0  0  0
  6  7  1  0  0  0  0
  7  8  2  0  0  0  0
  8  9  1  0  0  0  0
  8 16  1  0  0  0  0
  9 10  1  0  0  0  0
 10 11  1  0  0  0  0
 11 12  2  0  0  0  0
 11 13  1  0  0  0  0
 13 14  1  0  0  0  0
 14 15  1  0  0  0  0
 15 13  1  0  0  0  0
 16 17  1  0  0  0  0
 16 23  1  0  0  0  0
 17 18  2  0  0  0  0
 18 19  1  0  0  0  0
 19 20  2  0  0  0  0
 20 21  1  0  0  0  0
 21 22  2  0  0  0  0
 22 17  1  0  0  0  0
 23  6  2  0  0  0  0
 24 25  2  0  0  0  0
 25  2  1  0  0  0  0
M  END
>  <CHROM.1>
178.59749645,-57.63403869,65.09559330,12.05088210,134.77995945,179.89729692
44.30064485,-45.23692545,8.00404095,0.55005256,-0.31267889,-1.76743196

>  <Name>
design_3

>  <RI>
0

>  <Rbt.Current_Directory>
/home/ziqiaoxu/icml18-jtnn/VAEdesign

>  <Rbt.Executable>
rbdock ($Id: //depot/dev/client3/rdock/2013.1/src/exe/rbdock.cxx#4 $)

>  <Rbt.Library>
libRbt.so (2013.1, Build901 2013/11/27)

>  <Rbt.Parameter_File>
/export/apps/rDock/src/rDock_2013.1_src//data/scripts/dock.prm

>  <Rbt.Receptor>
/home/ziqiaoxu/icml18-jtnn/VAEdesign/targets/RdRp-SARS-CoV-2/pocket_docking.prm

>  <SCORE>
-19.8078

>  <SCORE.INTER>
-15.3648

>  <SCORE.INTER.CONST>
1

>  <SCORE.INTER.POLAR>
-0.342633

>  <SCORE.INTER.REPUL>
0

>  <SCORE.INTER.ROT>
6

>  <SCORE.INTER.VDW>
-25.5998

>  <SCORE.INTER.norm>
-0.614592

>  <SCORE.INTRA>
-4.44306

>  <SCORE.INTRA.DIHEDRAL>
-10.4859

>  <SCORE.INTRA.DIHEDRAL.0>
14.9668

>  <SCORE.INTRA.POLAR>
0

>  <SCORE.INTRA.POLAR.0>
0

>  <SCORE.INTRA.REPUL>
0

>  <SCORE.INTRA.REPUL.0>
0

>  <SCORE.INTRA.VDW>
0.799907

>  <SCORE.INTRA.VDW.0>
-1.46131

>  <SCORE.INTRA.norm>
-0.177722

>  <SCORE.RESTR>
0

>  <SCORE.RESTR.CAVITY>
0

>  <SCORE.RESTR.norm>
0

>  <SCORE.SYSTEM>
0

>  <SCORE.SYSTEM.CONST>
0

>  <SCORE.SYSTEM.DIHEDRAL>
0

>  <SCORE.SYSTEM.norm>
0

>  <SCORE.heavy>
25

>  <SCORE.norm>
-0.792314

$$$$
design_13
 OpenBabel05252019093D

 25 27  0  0  0  0  0  0  0  0999 V2000
   42.5011  -42.5946    0.8451 C   0  0  0  0  0  0  0  0  0  0  0  0
   42.0864  -41.9288    2.1075 C   0  0  0  0  0  0  0  0  0  0  0  0
   42.0104  -40.5470    2.1600 C   0  0  0  0  0  0  0  0  0  0  0  0
   41.6297  -39.8919    3.3117 C   0  0  0  0  0  0  0  0  0  0  0  0
   41.3076  -40.5803    4.4629 C   0  0  0  0  0  0  0  0  0  0  0  0
   40.8949  -39.8841    5.7138 C   0  0  0  0  0  0  0  0  0  0  0  0
   40.7319  -38.5214    5.7584 C   0  0  0  0  0  0  0  0  0  0  0  0
   40.2689  -38.2805    7.3844 S   0  0  0  0  0  0  0  0  0  0  0  0
   40.3110  -39.9072    7.8996 C   0  0  0  0  0  0  0  0  0  0  0  0
   40.0317  -40.4757    9.1755 N   0  0  0  0  0  0  0  0  0  0  0  0
   40.1372  -41.9047    9.3166 C   0  0  0  0  0  0  0  0  0  0  0  0
   40.4672  -42.5973    8.3259 O   0  0  0  0  0  0  0  0  0  0  0  0
   39.8642  -42.5544   10.5998 C   0  0  0  0  0  0  0  0  0  0  0  0
   40.7518  -43.7668   10.7420 C   0  0  0  0  0  0  0  0  0  0  0  0
   40.1893  -44.9161   10.0538 N   0  0  0  0  0  0  0  0  0  0  0  0
   40.8332  -45.4849    8.9518 C   0  0  0  0  0  0  0  0  0  0  0  0
   41.9091  -44.9950    8.5541 O   0  0  0  0  0  0  0  0  0  0  0  0
   40.2046  -46.6588    8.2929 C   0  0  0  0  0  0  0  0  0  0  0  0
   39.0900  -47.2589    8.7469 C   0  0  0  0  0  0  0  0  0  0  0  0
   38.6198  -48.3304    8.0367 C   0  0  0  0  0  0  0  0  0  0  0  0
   39.7402  -48.4700    6.7623 S   0  0  0  0  0  0  0  0  0  0  0  0
   40.7724  -47.1752    7.1562 C   0  0  0  0  0  0  0  0  0  0  0  0
   40.6746  -40.5473    6.8091 N   0  0  0  0  0  0  0  0  0  0  0  0
   41.3832  -41.9489    4.4099 C   0  0  0  0  0  0  0  0  0  0  0  0
   41.7669  -42.6183    3.2503 C   0  0  0  0  0  0  0  0  0  0  0  0
  1  2  1  0  0  0  0
  2  3  2  0  0  0  0
  3  4  1  0  0  0  0
  4  5  2  0  0  0  0
  5  6  1  0  0  0  0
  5 24  1  0  0  0  0
  6  7  2  0  0  0  0
  7  8  1  0  0  0  0
  8  9  1  0  0  0  0
  9 10  1  0  0  0  0
  9 23  2  0  0  0  0
 10 11  1  0  0  0  0
 11 12  2  0  0  0  0
 11 13  1  0  0  0  0
 13 14  1  0  0  0  0
 14 15  1  0  0  0  0
 15 16  1  0  0  0  0
 16 17  2  0  0  0  0
 16 18  1  0  0  0  0
 18 19  1  0  0  0  0
 19 20  2  0  0  0  0
 20 21  1  0  0  0  0
 21 22  1  0  0  0  0
 22 18  2  0  0  0  0
 23  6  1  0  0  0  0
 24 25  2  0  0  0  0
 25  2  1  0  0  0  0
M  END
>  <CHROM.1>
4.22548133,179.34794444,-147.10994440,-82.71558421,114.90889797,-4.24440566
40.65598449,-42.94128590,6.83759353,-0.82080643,-1.33220937,-2.89288791

>  <Name>
design_13

>  <RI>
0

>  <Rbt.Current_Directory>
/home/ziqiaoxu/icml18-jtnn/VAEdesign

>  <Rbt.Executable>
rbdock ($Id: //depot/dev/client3/rdock/2013.1/src/exe/rbdock.cxx#4 $)

>  <Rbt.Library>
libRbt.so (2013.1, Build901 2013/11/27)

>  <Rbt.Parameter_File>
/export/apps/rDock/src/rDock_2013.1_src//data/scripts/dock.prm

>  <Rbt.Receptor>
/home/ziqiaoxu/icml18-jtnn/VAEdesign/targets/RdRp-SARS-CoV-2/pocket_docking.prm

>  <SCORE>
-22.0747

>  <SCORE.INTER>
-20.8597

>  <SCORE.INTER.CONST>
1

>  <SCORE.INTER.POLAR>
-1.95901

>  <SCORE.INTER.REPUL>
0

>  <SCORE.INTER.ROT>
6

>  <SCORE.INTER.VDW>
-25.5991

>  <SCORE.INTER.norm>
-0.834388

>  <SCORE.INTRA>
-1.21652

>  <SCORE.INTRA.DIHEDRAL>
2.33347

>  <SCORE.INTRA.DIHEDRAL.0>
2.78561

>  <SCORE.INTRA.POLAR>
0

>  <SCORE.INTRA.POLAR.0>
0

>  <SCORE.INTRA.REPUL>
0

>  <SCORE.INTRA.REPUL.0>
0

>  <SCORE.INTRA.VDW>
-2.38325

>  <SCORE.INTRA.VDW.0>
1.8069

>  <SCORE.INTRA.norm>
-0.0486606

>  <SCORE.RESTR>
0.00147534

>  <SCORE.RESTR.CAVITY>
0.00147534

>  <SCORE.RESTR.norm>
5.90137e-05

>  <SCORE.SYSTEM>
0

>  <SCORE.SYSTEM.CONST>
0

>  <SCORE.SYSTEM.DIHEDRAL>
0

>  <SCORE.SYSTEM.norm>
0

>  <SCORE.heavy>
25

>  <SCORE.norm>
-0.88299

$$$$
design_0
 OpenBabel05252019093D

 23 24  0  0  0  0  0  0  0  0999 V2000
   38.7190  -46.8091    9.0058 C   0  0  0  0  0  0  0  0  0  0  0  0
   40.0411  -46.1062    8.9782 C   0  0  0  0  0  0  0  0  0  0  0  0
   40.4541  -45.3485   10.0535 C   0  0  0  0  0  0  0  0  0  0  0  0
   41.6770  -44.6965   10.0319 C   0  0  0  0  0  0  0  0  0  0  0  0
   42.5171  -44.7824    8.9418 C   0  0  0  0  0  0  0  0  0  0  0  0
   42.1221  -45.5363    7.8544 C   0  0  0  0  0  0  0  0  0  0  0  0
   42.8727  -45.6898    6.7195 O   0  0  0  0  0  0  0  0  0  0  0  0
   44.0807  -45.0837    6.4006 C   0  0  0  0  0  0  0  0  0  0  0  0
   44.5113  -45.4261    5.0330 C   0  0  0  0  0  0  0  0  0  0  0  0
   43.7489  -45.0609    4.1079 O   0  0  0  0  0  0  0  0  0  0  0  0
   45.6862  -46.1156    4.7739 N   0  0  0  0  0  0  0  0  0  0  0  0
   46.1941  -46.4730    3.4931 C   0  0  0  0  0  0  0  0  0  0  0  0
   47.4605  -47.0848    3.4238 C   0  0  0  0  0  0  0  0  0  0  0  0
   48.0374  -47.4410    2.2330 C   0  0  0  0  0  0  0  0  0  0  0  0
   47.3632  -47.1969    1.0482 C   0  0  0  0  0  0  0  0  0  0  0  0
   46.1230  -46.5998    1.0805 C   0  0  0  0  0  0  0  0  0  0  0  0
   45.2381  -46.2729   -0.3758 S   0  0  0  0  0  0  0  0  0  0  0  0
   43.4902  -46.1641   -0.0896 C   0  0  0  0  0  0  0  0  0  0  0  0
   45.7798  -45.0052   -0.9683 O   0  0  0  0  0  0  0  0  0  0  0  0
   45.5053  -47.3815   -1.3514 O   0  0  0  0  0  0  0  0  0  0  0  0
   45.5447  -46.2399    2.3121 C   0  0  0  0  0  0  0  0  0  0  0  0
   40.8840  -46.1886    7.8923 C   0  0  0  0  0  0  0  0  0  0  0  0
   40.4457  -47.0071    6.7220 C   0  0  0  0  0  0  0  0  0  0  0  0
  1  2  1  0  0  0  0
  2  3  2  0  0  0  0
  3  4  1  0  0  0  0
  4  5  2  0  0  0  0
  5  6  1  0  0  0  0
  6  7  1  0  0  0  0
  6 22  2  0  0  0  0
  7  8  1  0  0  0  0
  8  9  1  0  0  0  0
  9 10  2  0  0  0  0
  9 11  1  0  0  0  0
 11 12  1  0  0  0  0
 12 13  2  0  0  0  0
 13 14  1  0  0  0  0
 14 15  2  0  0  0  0
 15 16  1  0  0  0  0
 16 17  1  0  0  0  0
 16 21  2  0  0  0  0
 17 18  1  0  0  0  0
 17 19  2  0  0  0  0
 17 20  2  0  0  0  0
 21 12  1  0  0  0  0
 22 23  1  0  0  0  0
 22  2  1  0  0  0  0
M  END
>  <CHROM.1>
-4.48305197,-175.21825136,61.94014153,175.16790179,155.77292248,43.91895931
-46.08449617,4.28658527,2.10703642,0.00651123,1.47768727

>  <Name>
design_0

>  <RI>
0

>  <Rbt.Current_Directory>
/home/ziqiaoxu/icml18-jtnn/VAEdesign

>  <Rbt.Executable>
rbdock ($Id: //depot/dev/client3/rdock/2013.1/src/exe/rbdock.cxx#4 $)

>  <Rbt.Library>
libRbt.so (2013.1, Build901 2013/11/27)

>  <Rbt.Parameter_File>
/export/apps/rDock/src/rDock_2013.1_src//data/scripts/dock.prm

>  <Rbt.Receptor>
/home/ziqiaoxu/icml18-jtnn/VAEdesign/targets/RdRp-SARS-CoV-2/pocket_docking.prm

>  <SCORE>
-17.6146

>  <SCORE.INTER>
-18.0569

>  <SCORE.INTER.CONST>
1

>  <SCORE.INTER.POLAR>
-0.840732

>  <SCORE.INTER.REPUL>
0

>  <SCORE.INTER.ROT>
5

>  <SCORE.INTER.VDW>
-25.5985

>  <SCORE.INTER.norm>
-0.785084

>  <SCORE.INTRA>
0.442388

>  <SCORE.INTRA.DIHEDRAL>
-1.32335

>  <SCORE.INTRA.DIHEDRAL.0>
4.10136

>  <SCORE.INTRA.POLAR>
0

>  <SCORE.INTRA.POLAR.0>
0

>  <SCORE.INTRA.REPUL>
0

>  <SCORE.INTRA.REPUL.0>
0

>  <SCORE.INTRA.VDW>
1.10406

>  <SCORE.INTRA.VDW.0>
-1.75054

>  <SCORE.INTRA.norm>
0.0192343

>  <SCORE.RESTR>
0

>  <SCORE.RESTR.CAVITY>
0

>  <SCORE.RESTR.norm>
0

>  <SCORE.SYSTEM>
0

>  <SCORE.SYSTEM.CONST>
0

>  <SCORE.SYSTEM.DIHEDRAL>
0

>  <SCORE.SYSTEM.norm>
0

>  <SCORE.heavy>
23

>  <SCORE.norm>
-0.76585

$$$$
design_9
 OpenBabel05252019093D

 25 27  0  0  0  0  0  0  0  0999 V2000
   41.9041  -39.9002    1.8129 C   0  0  0  0  0  0  0  0  0  0  0  0
   42.9830  -40.0402    0.7749 C   0  0  0  0  0  0  0  0  0  0  0  0
   43.4156  -38.8889    0.1377 C   0  0  0  0  0  0  0  0  0  0  0  0
   44.4034  -39.0054   -0.8144 C   0  0  0  0  0  0  0  0  0  0  0  0
   44.9464  -40.2396   -1.1237 C   0  0  0  0  0  0  0  0  0  0  0  0
   44.5010  -41.3439   -0.4825 C   0  0  0  0  0  0  0  0  0  0  0  0
   43.5037  -41.2875    0.4901 C   0  0  0  0  0  0  0  0  0  0  0  0
   43.0512  -42.4950    1.1568 C   0  0  0  0  0  0  0  0  0  0  0  0
   43.7661  -43.5280    1.5965 N   0  0  0  0  0  0  0  0  0  0  0  0
   42.9475  -44.4427    2.1582 C   0  0  0  0  0  0  0  0  0  0  0  0
   43.2581  -45.7362    2.7781 C   0  0  0  0  0  0  0  0  0  0  0  0
   42.7005  -45.8501    4.1551 C   0  0  0  0  0  0  0  0  0  0  0  0
   43.2346  -45.1550    5.0293 O   0  0  0  0  0  0  0  0  0  0  0  0
   41.6231  -46.7183    4.3909 N   0  0  0  0  0  0  0  0  0  0  0  0
   40.9403  -46.9935    5.5751 C   0  0  0  0  0  0  0  0  0  0  0  0
   39.9154  -47.9373    5.6277 C   0  0  0  0  0  0  0  0  0  0  0  0
   39.2304  -48.2307    6.7748 C   0  0  0  0  0  0  0  0  0  0  0  0
   39.5149  -47.6056    7.9563 C   0  0  0  0  0  0  0  0  0  0  0  0
   40.5276  -46.6629    7.9374 C   0  0  0  0  0  0  0  0  0  0  0  0
   40.8544  -45.9816    9.1731 C   0  0  0  0  0  0  0  0  0  0  0  0
   40.1317  -46.2952   10.3493 N   0  0  0  0  0  0  0  0  0  0  0  0
   41.7625  -45.1163    9.2389 O   0  0  0  0  0  0  0  0  0  0  0  0
   41.2241  -46.3678    6.7605 C   0  0  0  0  0  0  0  0  0  0  0  0
   41.6897  -43.9554    2.0600 N   0  0  0  0  0  0  0  0  0  0  0  0
   41.7745  -42.7647    1.4453 N   0  0  0  0  0  0  0  0  0  0  0  0
  1  2  1  0  0  0  0
  2  3  2  0  0  0  0
  3  4  1  0  0  0  0
  4  5  2  0  0  0  0
  5  6  1  0  0  0  0
  6  7  2  0  0  0  0
  7  8  1  0  0  0  0
  7  2  1  0  0  0  0
  8  9  2  0  0  0  0
  9 10  1  0  0  0  0
 10 11  1  0  0  0  0
 10 24  2  0  0  0  0
 11 12  1  0  0  0  0
 12 13  2  0  0  0  0
 12 14  1  0  0  0  0
 14 15  1  0  0  0  0
 15 16  2  0  0  0  0
 16 17  1  0  0  0  0
 17 18  2  0  0  0  0
 18 19  1  0  0  0  0
 19 20  1  0  0  0  0
 19 23  2  0  0  0  0
 20 21  1  0  0  0  0
 20 22  2  0  0  0  0
 23 15  1  0  0  0  0
 24 25  1  0  0  0  0
 25  8  1  0  0  0  0
M  END
>  <CHROM.1>
-139.25966130,126.33246136,-70.58975719,-177.40258484,-0.20059665,42.13369500
-44.12272884,3.87576184,0.12743181,1.26381736,0.54306750

>  <Name>
design_9

>  <RI>
0

>  <Rbt.Current_Directory>
/home/ziqiaoxu/icml18-jtnn/VAEdesign

>  <Rbt.Executable>
rbdock ($Id: //depot/dev/client3/rdock/2013.1/src/exe/rbdock.cxx#4 $)

>  <Rbt.Library>
libRbt.so (2013.1, Build901 2013/11/27)

>  <Rbt.Parameter_File>
/export/apps/rDock/src/rDock_2013.1_src//data/scripts/dock.prm

>  <Rbt.Receptor>
/home/ziqiaoxu/icml18-jtnn/VAEdesign/targets/RdRp-SARS-CoV-2/pocket_docking.prm

>  <SCORE>
-27.2762

>  <SCORE.INTER>
-29.0189

>  <SCORE.INTER.CONST>
1

>  <SCORE.INTER.POLAR>
-4.17068

>  <SCORE.INTER.REPUL>
0.0711741

>  <SCORE.INTER.ROT>
5

>  <SCORE.INTER.VDW>
-25.5944

>  <SCORE.INTER.norm>
-1.16076

>  <SCORE.INTRA>
1.74265

>  <SCORE.INTRA.DIHEDRAL>
5.44127

>  <SCORE.INTRA.DIHEDRAL.0>
2.73028

>  <SCORE.INTRA.POLAR>
0

>  <SCORE.INTRA.POLAR.0>
0

>  <SCORE.INTRA.REPUL>
0

>  <SCORE.INTRA.REPUL.0>
0

>  <SCORE.INTRA.VDW>
-0.977986

>  <SCORE.INTRA.VDW.0>
0.175246

>  <SCORE.INTRA.norm>
0.0697059

>  <SCORE.RESTR>
0

>  <SCORE.RESTR.CAVITY>
0

>  <SCORE.RESTR.norm>
0

>  <SCORE.SYSTEM>
0

>  <SCORE.SYSTEM.CONST>
0

>  <SCORE.SYSTEM.DIHEDRAL>
0

>  <SCORE.SYSTEM.norm>
0

>  <SCORE.heavy>
25

>  <SCORE.norm>
-1.09105

$$$$
design_8
 OpenBabel05252019093D

 25 27  0  0  0  0  0  0  0  0999 V2000
   40.1779  -46.0784   10.9163 N   0  0  0  0  0  0  0  0  0  0  0  0
   39.9361  -45.4204    9.3350 S   0  0  0  0  0  0  0  0  0  0  0  0
   38.9721  -46.3065    8.5908 O   0  0  0  0  0  0  0  0  0  0  0  0
   39.4027  -44.0145    9.4118 O   0  0  0  0  0  0  0  0  0  0  0  0
   41.4791  -45.3558    8.5459 C   0  0  0  0  0  0  0  0  0  0  0  0
   41.6603  -45.8657    7.2971 C   0  0  0  0  0  0  0  0  0  0  0  0
   42.9165  -45.7899    6.7034 C   0  0  0  0  0  0  0  0  0  0  0  0
   43.9897  -45.2227    7.3199 C   0  0  0  0  0  0  0  0  0  0  0  0
   45.2929  -45.1460    6.7687 N   0  0  0  0  0  0  0  0  0  0  0  0
   45.5527  -45.3051    5.3973 C   0  0  0  0  0  0  0  0  0  0  0  0
   44.6667  -45.5340    4.5733 O   0  0  0  0  0  0  0  0  0  0  0  0
   46.9887  -45.1822    4.9639 C   0  0  0  0  0  0  0  0  0  0  0  0
   47.2894  -46.1125    3.8527 C   0  0  0  0  0  0  0  0  0  0  0  0
   47.8969  -45.5321    2.6281 C   0  0  0  0  0  0  0  0  0  0  0  0
   47.5157  -46.2908    1.3915 C   0  0  0  0  0  0  0  0  0  0  0  0
   48.3118  -47.1091    0.6130 C   0  0  0  0  0  0  0  0  0  0  0  0
   47.5826  -47.5885   -0.3929 N   0  0  0  0  0  0  0  0  0  0  0  0
   46.3217  -47.1350   -0.3383 C   0  0  0  0  0  0  0  0  0  0  0  0
   45.2199  -47.3513   -1.1476 C   0  0  0  0  0  0  0  0  0  0  0  0
   44.0443  -46.7178   -0.8025 C   0  0  0  0  0  0  0  0  0  0  0  0
   43.9863  -45.9063    0.3058 C   0  0  0  0  0  0  0  0  0  0  0  0
   45.0826  -45.7006    1.0981 C   0  0  0  0  0  0  0  0  0  0  0  0
   46.2772  -46.3182    0.7838 C   0  0  0  0  0  0  0  0  0  0  0  0
   43.7931  -44.6933    8.6196 C   0  0  0  0  0  0  0  0  0  0  0  0
   42.5523  -44.7797    9.1799 C   0  0  0  0  0  0  0  0  0  0  0  0
  1  2  1  0  0  0  0
  2  3  2  0  0  0  0
  2  4  2  0  0  0  0
  2  5  1  0  0  0  0
  5  6  2  0  0  0  0
  6  7  1  0  0  0  0
  7  8  2  0  0  0  0
  8  9  1  0  0  0  0
  8 24  1  0  0  0  0
  9 10  1  0  0  0  0
 10 11  2  0  0  0  0
 10 12  1  0  0  0  0
 12 13  1  0  0  0  0
 13 14  1  0  0  0  0
 14 15  1  0  0  0  0
 15 16  2  0  0  0  0
 16 17  1  0  0  0  0
 17 18  1  0  0  0  0
 18 19  2  0  0  0  0
 19 20  1  0  0  0  0
 20 21  2  0  0  0  0
 21 22  1  0  0  0  0
 22 23  2  0  0  0  0
 23 15  1  0  0  0  0
 23 18  1  0  0  0  0
 24 25  2  0  0  0  0
 25  5  1  0  0  0  0
M  END
>  <CHROM.1>
54.55443931,129.64093353,18.27310188,144.68768408,126.66501513,-149.89895780
-108.84936609,43.96596020,-45.82824646,4.99255307,2.16825131,0.10430278,1.35425859

>  <Name>
design_8

>  <RI>
0

>  <Rbt.Current_Directory>
/home/ziqiaoxu/icml18-jtnn/VAEdesign

>  <Rbt.Executable>
rbdock ($Id: //depot/dev/client3/rdock/2013.1/src/exe/rbdock.cxx#4 $)

>  <Rbt.Library>
libRbt.so (2013.1, Build901 2013/11/27)

>  <Rbt.Parameter_File>
/export/apps/rDock/src/rDock_2013.1_src//data/scripts/dock.prm

>  <Rbt.Receptor>
/home/ziqiaoxu/icml18-jtnn/VAEdesign/targets/RdRp-SARS-CoV-2/pocket_docking.prm

>  <SCORE>
-22.8239

>  <SCORE.INTER>
-25.4689

>  <SCORE.INTER.CONST>
1

>  <SCORE.INTER.POLAR>
-3.61016

>  <SCORE.INTER.REPUL>
0

>  <SCORE.INTER.ROT>
7

>  <SCORE.INTER.VDW>
-25.5943

>  <SCORE.INTER.norm>
-1.01876

>  <SCORE.INTRA>
2.645

>  <SCORE.INTRA.DIHEDRAL>
7.57486

>  <SCORE.INTRA.DIHEDRAL.0>
5.30771

>  <SCORE.INTRA.POLAR>
0

>  <SCORE.INTRA.POLAR.0>
0

>  <SCORE.INTRA.REPUL>
0

>  <SCORE.INTRA.REPUL.0>
0

>  <SCORE.INTRA.VDW>
-1.14243

>  <SCORE.INTRA.VDW.0>
-0.290047

>  <SCORE.INTRA.norm>
0.1058

>  <SCORE.RESTR>
0

>  <SCORE.RESTR.CAVITY>
0

>  <SCORE.RESTR.norm>
0

>  <SCORE.SYSTEM>
0

>  <SCORE.SYSTEM.CONST>
0

>  <SCORE.SYSTEM.DIHEDRAL>
0

>  <SCORE.SYSTEM.norm>
0

>  <SCORE.heavy>
25

>  <SCORE.norm>
-0.912955

$$$$
design_0
 OpenBabel05252019093D

 22 24  0  0  0  0  0  0  0  0999 V2000
   35.1388  -41.1088    4.5854 N   0  0  0  0  0  0  0  0  0  0  0  0
   35.6362  -41.6737    6.1206 S   0  0  0  0  0  0  0  0  0  0  0  0
   36.6566  -40.6717    6.6461 O   0  0  0  0  0  0  0  0  0  0  0  0
   34.5158  -41.8229    7.0731 O   0  0  0  0  0  0  0  0  0  0  0  0
   36.4492  -43.2200    5.9101 C   0  0  0  0  0  0  0  0  0  0  0  0
   37.7750  -43.3269    6.2181 C   0  0  0  0  0  0  0  0  0  0  0  0
   38.4332  -44.5120    6.0867 C   0  0  0  0  0  0  0  0  0  0  0  0
   37.7865  -45.6696    5.6301 C   0  0  0  0  0  0  0  0  0  0  0  0
   38.5152  -46.8293    5.5991 N   0  0  0  0  0  0  0  0  0  0  0  0
   39.7634  -47.3625    6.0378 C   0  0  0  0  0  0  0  0  0  0  0  0
   39.9779  -46.8600    7.4198 C   0  0  0  0  0  0  0  0  0  0  0  0
   39.0995  -46.9534    8.4379 C   0  0  0  0  0  0  0  0  0  0  0  0
   39.3302  -46.3428    9.6769 C   0  0  0  0  0  0  0  0  0  0  0  0
   40.5177  -45.6347    9.8191 C   0  0  0  0  0  0  0  0  0  0  0  0
   41.4399  -45.5248    8.7835 C   0  0  0  0  0  0  0  0  0  0  0  0
   42.6784  -44.8905    8.9248 C   0  0  0  0  0  0  0  0  0  0  0  0
   43.5982  -44.8889    7.8911 C   0  0  0  0  0  0  0  0  0  0  0  0
   43.2802  -45.5120    6.7106 C   0  0  0  0  0  0  0  0  0  0  0  0
   42.0813  -46.1121    6.5878 N   0  0  0  0  0  0  0  0  0  0  0  0
   41.1724  -46.1293    7.5911 C   0  0  0  0  0  0  0  0  0  0  0  0
   36.4438  -45.5142    5.3260 C   0  0  0  0  0  0  0  0  0  0  0  0
   35.7749  -44.3205    5.4587 C   0  0  0  0  0  0  0  0  0  0  0  0
  1  2  1  0  0  0  0
  2  3  2  0  0  0  0
  2  4  2  0  0  0  0
  2  5  1  0  0  0  0
  5  6  2  0  0  0  0
  6  7  1  0  0  0  0
  7  8  2  0  0  0  0
  8  9  1  0  0  0  0
  8 21  1  0  0  0  0
  9 10  1  0  0  0  0
 10 11  1  0  0  0  0
 11 12  2  0  0  0  0
 12 13  1  0  0  0  0
 13 14  2  0  0  0  0
 14 15  1  0  0  0  0
 15 16  2  0  0  0  0
 16 17  1  0  0  0  0
 17 18  2  0  0  0  0
 18 19  1  0  0  0  0
 19 20  2  0  0  0  0
 20 11  1  0  0  0  0
 20 15  1  0  0  0  0
 21 22  2  0  0  0  0
 22  5  1  0  0  0  0
M  END
>  <CHROM.1>
168.78661624,115.45831569,10.14375907,41.73247030,51.92507064,38.61551445
-44.49601357,6.84056373,-2.68377353,0.45783401,-2.88021133

>  <Name>
design_0

>  <RI>
0

>  <Rbt.Current_Directory>
/home/ziqiaoxu/icml18-jtnn/VAEdesign

>  <Rbt.Executable>
rbdock ($Id: //depot/dev/client3/rdock/2013.1/src/exe/rbdock.cxx#4 $)

>  <Rbt.Library>
libRbt.so (2013.1, Build901 2013/11/27)

>  <Rbt.Parameter_File>
/export/apps/rDock/src/rDock_2013.1_src//data/scripts/dock.prm

>  <Rbt.Receptor>
/home/ziqiaoxu/icml18-jtnn/VAEdesign/targets/RdRp-SARS-CoV-2/pocket_docking.prm

>  <SCORE>
-24.05

>  <SCORE.INTER>
-22.8507

>  <SCORE.INTER.CONST>
1

>  <SCORE.INTER.POLAR>
-2.40801

>  <SCORE.INTER.REPUL>
0.10614

>  <SCORE.INTER.ROT>
5

>  <SCORE.INTER.VDW>
-25.5942

>  <SCORE.INTER.norm>
-1.03867

>  <SCORE.INTRA>
-1.19924

>  <SCORE.INTRA.DIHEDRAL>
-1.64139

>  <SCORE.INTRA.DIHEDRAL.0>
6.43631

>  <SCORE.INTRA.POLAR>
0

>  <SCORE.INTRA.POLAR.0>
0

>  <SCORE.INTRA.REPUL>
0

>  <SCORE.INTRA.REPUL.0>
0

>  <SCORE.INTRA.VDW>
-0.378542

>  <SCORE.INTRA.VDW.0>
-1.98136

>  <SCORE.INTRA.norm>
-0.0545108

>  <SCORE.RESTR>
0

>  <SCORE.RESTR.CAVITY>
0

>  <SCORE.RESTR.norm>
0

>  <SCORE.SYSTEM>
0

>  <SCORE.SYSTEM.CONST>
0

>  <SCORE.SYSTEM.DIHEDRAL>
0

>  <SCORE.SYSTEM.norm>
0

>  <SCORE.heavy>
22

>  <SCORE.norm>
-1.09318

$$$$
design_18
 OpenBabel05252019093D

 24 26  0  0  0  0  0  0  0  0999 V2000
   41.2073  -45.3443    4.0544 C   0  0  0  0  0  0  0  0  0  0  0  0
   39.9605  -45.9392    4.6259 C   0  0  0  0  0  0  0  0  0  0  0  0
   38.7471  -45.6761    4.0205 C   0  0  0  0  0  0  0  0  0  0  0  0
   37.5648  -46.2033    4.5132 C   0  0  0  0  0  0  0  0  0  0  0  0
   37.6194  -47.0085    5.6362 C   0  0  0  0  0  0  0  0  0  0  0  0
   38.8140  -47.2951    6.2706 C   0  0  0  0  0  0  0  0  0  0  0  0
   38.8344  -48.1725    7.4910 C   0  0  0  0  0  0  0  0  0  0  0  0
   38.1683  -47.4631    8.6468 C   0  0  0  0  0  0  0  0  0  0  0  0
   38.9318  -46.2317    8.9481 C   0  0  0  0  0  0  0  0  0  0  0  0
   38.6469  -45.1746    8.3722 O   0  0  0  0  0  0  0  0  0  0  0  0
   39.9753  -46.2908    9.8928 N   0  0  0  0  0  0  0  0  0  0  0  0
   40.8094  -45.1705   10.2883 C   0  0  0  0  0  0  0  0  0  0  0  0
   41.9462  -45.1024    9.3446 C   0  0  0  0  0  0  0  0  0  0  0  0
   43.0555  -44.3259    9.5903 C   0  0  0  0  0  0  0  0  0  0  0  0
   44.0954  -44.2819    8.6853 C   0  0  0  0  0  0  0  0  0  0  0  0
   44.0279  -45.0143    7.5331 C   0  0  0  0  0  0  0  0  0  0  0  0
   45.1000  -44.9614    6.6089 N   0  0  0  0  0  0  0  0  0  0  0  0
   46.2178  -44.2103    6.7019 C   0  0  0  0  0  0  0  0  0  0  0  0
   46.9701  -44.4525    5.6287 N   0  0  0  0  0  0  0  0  0  0  0  0
   46.3250  -45.3520    4.8664 C   0  0  0  0  0  0  0  0  0  0  0  0
   45.1903  -45.6534    5.4730 N   0  0  0  0  0  0  0  0  0  0  0  0
   42.9383  -45.7882    7.2728 C   0  0  0  0  0  0  0  0  0  0  0  0
   41.8969  -45.8299    8.1827 C   0  0  0  0  0  0  0  0  0  0  0  0
   39.9581  -46.7425    5.7353 C   0  0  0  0  0  0  0  0  0  0  0  0
  1  2  1  0  0  0  0
  2  3  2  0  0  0  0
  3  4  1  0  0  0  0
  4  5  2  0  0  0  0
  5  6  1  0  0  0  0
  6  7  1  0  0  0  0
  6 24  2  0  0  0  0
  7  8  1  0  0  0  0
  8  9  1  0  0  0  0
  9 10  2  0  0  0  0
  9 11  1  0  0  0  0
 11 12  1  0  0  0  0
 12 13  1  0  0  0  0
 13 14  2  0  0  0  0
 14 15  1  0  0  0  0
 15 16  2  0  0  0  0
 16 17  1  0  0  0  0
 16 22  1  0  0  0  0
 17 18  1  0  0  0  0
 18 19  2  0  0  0  0
 19 20  1  0  0  0  0
 20 21  2  0  0  0  0
 21 17  1  0  0  0  0
 22 23  2  0  0  0  0
 23 13  1  0  0  0  0
 24  2  1  0  0  0  0
M  END
>  <CHROM.1>
-68.33142577,-61.71754445,89.15825128,-87.41250142,-166.88154737,-2.43631041
41.53374927,-45.73739421,7.03078968,3.10649230,0.26094074,1.49248293

>  <Name>
design_18

>  <RI>
0

>  <Rbt.Current_Directory>
/home/ziqiaoxu/icml18-jtnn/VAEdesign

>  <Rbt.Executable>
rbdock ($Id: //depot/dev/client3/rdock/2013.1/src/exe/rbdock.cxx#4 $)

>  <Rbt.Library>
libRbt.so (2013.1, Build901 2013/11/27)

>  <Rbt.Parameter_File>
/export/apps/rDock/src/rDock_2013.1_src//data/scripts/dock.prm

>  <Rbt.Receptor>
/home/ziqiaoxu/icml18-jtnn/VAEdesign/targets/RdRp-SARS-CoV-2/pocket_docking.prm

>  <SCORE>
-21.2442

>  <SCORE.INTER>
-18.872

>  <SCORE.INTER.CONST>
1

>  <SCORE.INTER.POLAR>
-1.378

>  <SCORE.INTER.REPUL>
0

>  <SCORE.INTER.ROT>
6

>  <SCORE.INTER.VDW>
-25.5868

>  <SCORE.INTER.norm>
-0.786332

>  <SCORE.INTRA>
-2.3722

>  <SCORE.INTRA.DIHEDRAL>
-0.77767

>  <SCORE.INTRA.DIHEDRAL.0>
5.41501

>  <SCORE.INTRA.POLAR>
0

>  <SCORE.INTRA.POLAR.0>
0

>  <SCORE.INTRA.REPUL>
0

>  <SCORE.INTRA.REPUL.0>
0

>  <SCORE.INTRA.VDW>
-1.98336

>  <SCORE.INTRA.VDW.0>
0.168334

>  <SCORE.INTRA.norm>
-0.0988416

>  <SCORE.RESTR>
0

>  <SCORE.RESTR.CAVITY>
0

>  <SCORE.RESTR.norm>
0

>  <SCORE.SYSTEM>
0

>  <SCORE.SYSTEM.CONST>
0

>  <SCORE.SYSTEM.DIHEDRAL>
0

>  <SCORE.SYSTEM.norm>
0

>  <SCORE.heavy>
24

>  <SCORE.norm>
-0.885174

$$$$
design_5
 OpenBabel05252019093D

 22 23  0  0  0  0  0  0  0  0999 V2000
   46.4371  -44.8913    5.6138 N   0  0  0  0  0  0  0  0  0  0  0  0
   45.6350  -44.8345    6.4464 C   0  0  0  0  0  0  0  0  0  0  0  0
   44.6477  -44.7455    7.4904 C   0  0  0  0  0  0  0  0  0  0  0  0
   43.3947  -45.2661    7.2842 C   0  0  0  0  0  0  0  0  0  0  0  0
   42.4119  -45.2003    8.2680 C   0  0  0  0  0  0  0  0  0  0  0  0
   42.6918  -44.6040    9.4739 C   0  0  0  0  0  0  0  0  0  0  0  0
   41.4958  -44.4977   10.7346 S   0  0  0  0  0  0  0  0  0  0  0  0
   40.7428  -43.1917   10.5979 O   0  0  0  0  0  0  0  0  0  0  0  0
   42.2015  -44.4858   12.0759 O   0  0  0  0  0  0  0  0  0  0  0  0
   40.3919  -45.8064   10.6950 N   0  0  0  0  0  0  0  0  0  0  0  0
   39.7419  -45.8160    9.4128 C   0  0  0  0  0  0  0  0  0  0  0  0
   38.6123  -46.8402    9.3602 C   0  0  0  0  0  0  0  0  0  0  0  0
   38.1769  -46.9150    7.9460 C   0  0  0  0  0  0  0  0  0  0  0  0
   38.4500  -47.9765    7.1147 C   0  0  0  0  0  0  0  0  0  0  0  0
   38.0191  -47.9986    5.7953 C   0  0  0  0  0  0  0  0  0  0  0  0
   37.2956  -46.9390    5.2809 C   0  0  0  0  0  0  0  0  0  0  0  0
   37.0165  -45.8728    6.1015 C   0  0  0  0  0  0  0  0  0  0  0  0
   36.2694  -44.7852    5.5602 C   0  0  0  0  0  0  0  0  0  0  0  0
   35.6595  -43.9110    5.1121 N   0  0  0  0  0  0  0  0  0  0  0  0
   37.4486  -45.8635    7.4044 C   0  0  0  0  0  0  0  0  0  0  0  0
   43.9506  -44.0855    9.6704 C   0  0  0  0  0  0  0  0  0  0  0  0
   44.9346  -44.1462    8.6976 C   0  0  0  0  0  0  0  0  0  0  0  0
  1  2  3  0  0  0  0
  2  3  1  0  0  0  0
  3  4  2  0  0  0  0
  4  5  1  0  0  0  0
  5  6  2  0  0  0  0
  6  7  1  0  0  0  0
  6 21  1  0  0  0  0
  7  8  2  0  0  0  0
  7  9  2  0  0  0  0
  7 10  1  0  0  0  0
 10 11  1  0  0  0  0
 11 12  1  0  0  0  0
 12 13  1  0  0  0  0
 13 14  2  0  0  0  0
 14 15  1  0  0  0  0
 15 16  2  0  0  0  0
 16 17  1  0  0  0  0
 17 18  1  0  0  0  0
 17 20  2  0  0  0  0
 18 19  3  0  0  0  0
 20 13  1  0  0  0  0
 21 22  2  0  0  0  0
 22  3  1  0  0  0  0
M  END
>  <CHROM.1>
-91.57265116,-58.68399081,-172.57698068,-170.84824088,107.04107911,40.76009437
-45.31351263,8.26480965,-0.35961116,-0.16192181,-1.75989087

>  <Name>
design_5

>  <RI>
0

>  <Rbt.Current_Directory>
/home/ziqiaoxu/icml18-jtnn/VAEdesign

>  <Rbt.Executable>
rbdock ($Id: //depot/dev/client3/rdock/2013.1/src/exe/rbdock.cxx#4 $)

>  <Rbt.Library>
libRbt.so (2013.1, Build901 2013/11/27)

>  <Rbt.Parameter_File>
/export/apps/rDock/src/rDock_2013.1_src//data/scripts/dock.prm

>  <Rbt.Receptor>
/home/ziqiaoxu/icml18-jtnn/VAEdesign/targets/RdRp-SARS-CoV-2/pocket_docking.prm

>  <SCORE>
-16.6663

>  <SCORE.INTER>
-17.8645

>  <SCORE.INTER.CONST>
1

>  <SCORE.INTER.POLAR>
-1.02682

>  <SCORE.INTER.REPUL>
0.162023

>  <SCORE.INTER.ROT>
5

>  <SCORE.INTER.VDW>
-25.5834

>  <SCORE.INTER.norm>
-0.812022

>  <SCORE.INTRA>
1.19822

>  <SCORE.INTRA.DIHEDRAL>
0.379412

>  <SCORE.INTRA.DIHEDRAL.0>
1.94547

>  <SCORE.INTRA.POLAR>
0

>  <SCORE.INTRA.POLAR.0>
0

>  <SCORE.INTRA.REPUL>
0

>  <SCORE.INTRA.REPUL.0>
0

>  <SCORE.INTRA.VDW>
1.00851

>  <SCORE.INTRA.VDW.0>
-1.42341

>  <SCORE.INTRA.norm>
0.0544644

>  <SCORE.RESTR>
0

>  <SCORE.RESTR.CAVITY>
0

>  <SCORE.RESTR.norm>
0

>  <SCORE.SYSTEM>
0

>  <SCORE.SYSTEM.CONST>
0

>  <SCORE.SYSTEM.DIHEDRAL>
0

>  <SCORE.SYSTEM.norm>
0

>  <SCORE.heavy>
22

>  <SCORE.norm>
-0.757557

$$$$
design_6
 OpenBabel05252019093D

 25 27  0  0  0  0  0  0  0  0999 V2000
   42.5720  -45.1477    7.9685 C   0  0  0  0  0  0  0  0  0  0  0  0
   41.3792  -46.0387    8.0270 C   0  0  0  0  0  0  0  0  0  0  0  0
   41.2008  -46.9362    7.0012 C   0  0  0  0  0  0  0  0  0  0  0  0
   40.1343  -47.8080    6.9544 C   0  0  0  0  0  0  0  0  0  0  0  0
   39.2180  -47.7624    7.9902 C   0  0  0  0  0  0  0  0  0  0  0  0
   39.3793  -46.8646    9.0351 C   0  0  0  0  0  0  0  0  0  0  0  0
   40.4544  -46.0095    9.0500 C   0  0  0  0  0  0  0  0  0  0  0  0
   40.6856  -44.8535   10.3773 S   0  0  0  0  0  0  0  0  0  0  0  0
   39.5723  -43.4632   10.3072 C   0  0  0  0  0  0  0  0  0  0  0  0
   39.8461  -42.5073    9.1968 C   0  0  0  0  0  0  0  0  0  0  0  0
   40.1844  -43.0261    8.1035 O   0  0  0  0  0  0  0  0  0  0  0  0
   39.7466  -41.1298    9.3193 N   0  0  0  0  0  0  0  0  0  0  0  0
   40.0187  -40.1910    8.2984 C   0  0  0  0  0  0  0  0  0  0  0  0
   40.2602  -38.8526    8.6592 C   0  0  0  0  0  0  0  0  0  0  0  0
   40.5672  -37.9135    7.7085 C   0  0  0  0  0  0  0  0  0  0  0  0
   40.6469  -38.2470    6.3885 C   0  0  0  0  0  0  0  0  0  0  0  0
   40.4137  -39.5702    5.9828 C   0  0  0  0  0  0  0  0  0  0  0  0
   40.5425  -39.8565    4.5984 N   0  0  0  0  0  0  0  0  0  0  0  0
   41.3206  -39.1175    3.6852 C   0  0  0  0  0  0  0  0  0  0  0  0
   42.0189  -38.1303    3.9189 O   0  0  0  0  0  0  0  0  0  0  0  0
   41.3140  -39.5473    2.2982 N   0  0  0  0  0  0  0  0  0  0  0  0
   42.0621  -38.8746    1.2717 C   0  0  0  0  0  0  0  0  0  0  0  0
   43.5604  -38.6083    1.4986 C   0  0  0  0  0  0  0  0  0  0  0  0
   43.1144  -39.6030    0.4962 C   0  0  0  0  0  0  0  0  0  0  0  0
   40.1115  -40.4775    6.9563 C   0  0  0  0  0  0  0  0  0  0  0  0
  1  2  1  0  0  0  0
  2  3  2  0  0  0  0
  3  4  1  0  0  0  0
  4  5  2  0  0  0  0
  5  6  1  0  0  0  0
  6  7  2  0  0  0  0
  7  8  1  0  0  0  0
  7  2  1  0  0  0  0
  8  9  1  0  0  0  0
  9 10  1  0  0  0  0
 10 11  2  0  0  0  0
 10 12  1  0  0  0  0
 12 13  1  0  0  0  0
 13 14  2  0  0  0  0
 14 15  1  0  0  0  0
 15 16  2  0  0  0  0
 16 17  1  0  0  0  0
 17 18  1  0  0  0  0
 17 25  2  0  0  0  0
 18 19  1  0  0  0  0
 19 20  2  0  0  0  0
 19 21  1  0  0  0  0
 21 22  1  0  0  0  0
 22 23  1  0  0  0  0
 23 24  1  0  0  0  0
 24 22  1  0  0  0  0
 25 13  1  0  0  0  0
M  END
>  <CHROM.1>
105.50570624,-70.39240116,39.20982419,-161.38996389,24.34593883,51.58335088
40.82712560,-42.12310420,6.74997080,-2.13891118,1.25801365,-0.14770195

>  <Name>
design_6

>  <RI>
0

>  <Rbt.Current_Directory>
/home/ziqiaoxu/icml18-jtnn/VAEdesign

>  <Rbt.Executable>
rbdock ($Id: //depot/dev/client3/rdock/2013.1/src/exe/rbdock.cxx#4 $)

>  <Rbt.Library>
libRbt.so (2013.1, Build901 2013/11/27)

>  <Rbt.Parameter_File>
/export/apps/rDock/src/rDock_2013.1_src//data/scripts/dock.prm

>  <Rbt.Receptor>
/home/ziqiaoxu/icml18-jtnn/VAEdesign/targets/RdRp-SARS-CoV-2/pocket_docking.prm

>  <SCORE>
-21.138

>  <SCORE.INTER>
-21.8099

>  <SCORE.INTER.CONST>
1

>  <SCORE.INTER.POLAR>
-2.24321

>  <SCORE.INTER.REPUL>
0

>  <SCORE.INTER.ROT>
6

>  <SCORE.INTER.VDW>
-25.583

>  <SCORE.INTER.norm>
-0.872395

>  <SCORE.INTRA>
0.66652

>  <SCORE.INTRA.DIHEDRAL>
-0.480298

>  <SCORE.INTRA.DIHEDRAL.0>
8.70189

>  <SCORE.INTRA.POLAR>
0

>  <SCORE.INTRA.POLAR.0>
0

>  <SCORE.INTRA.REPUL>
-0.0940281

>  <SCORE.INTRA.REPUL.0>
0.0940281

>  <SCORE.INTRA.VDW>
1.37681

>  <SCORE.INTRA.VDW.0>
-2.87872

>  <SCORE.INTRA.norm>
0.0266608

>  <SCORE.RESTR>
0.00533509

>  <SCORE.RESTR.CAVITY>
0.00533509

>  <SCORE.RESTR.norm>
0.000213404

>  <SCORE.SYSTEM>
0

>  <SCORE.SYSTEM.CONST>
0

>  <SCORE.SYSTEM.DIHEDRAL>
0

>  <SCORE.SYSTEM.norm>
0

>  <SCORE.heavy>
25

>  <SCORE.norm>
-0.845521

$$$$
design_0
 OpenBabel05252019093D

 26 29  0  0  0  0  0  0  0  0999 V2000
   40.1315  -37.3099    2.5248 C   0  0  0  0  0  0  0  0  0  0  0  0
   39.8793  -37.4174    4.0019 C   0  0  0  0  0  0  0  0  0  0  0  0
   39.5182  -36.4086    4.8328 N   0  0  0  0  0  0  0  0  0  0  0  0
   39.3884  -36.8991    6.0727 N   0  0  0  0  0  0  0  0  0  0  0  0
   39.6616  -38.2158    6.0555 C   0  0  0  0  0  0  0  0  0  0  0  0
   39.6296  -39.1067    7.2110 C   0  0  0  0  0  0  0  0  0  0  0  0
   40.4061  -38.8563    8.3222 C   0  0  0  0  0  0  0  0  0  0  0  0
   40.3927  -39.6876    9.4315 C   0  0  0  0  0  0  0  0  0  0  0  0
   39.5938  -40.8112    9.4692 C   0  0  0  0  0  0  0  0  0  0  0  0
   39.5494  -41.7237   10.6309 C   0  0  0  0  0  0  0  0  0  0  0  0
   39.2455  -43.0763   10.2462 N   0  0  0  0  0  0  0  0  0  0  0  0
   40.4190  -43.8716   10.0175 C   0  0  0  0  0  0  0  0  0  0  0  0
   40.1933  -44.9748    9.0775 C   0  0  0  0  0  0  0  0  0  0  0  0
   40.8759  -44.9685    7.8795 C   0  0  0  0  0  0  0  0  0  0  0  0
   40.7343  -45.9560    6.9313 C   0  0  0  0  0  0  0  0  0  0  0  0
   41.4287  -45.9260    5.7411 C   0  0  0  0  0  0  0  0  0  0  0  0
   41.2704  -46.9234    4.8106 C   0  0  0  0  0  0  0  0  0  0  0  0
   40.3926  -47.9438    5.1226 C   0  0  0  0  0  0  0  0  0  0  0  0
   39.6901  -47.9926    6.3042 C   0  0  0  0  0  0  0  0  0  0  0  0
   39.8641  -46.9849    7.2197 C   0  0  0  0  0  0  0  0  0  0  0  0
   39.1914  -46.9846    8.4083 C   0  0  0  0  0  0  0  0  0  0  0  0
   38.3965  -47.9166    8.6811 O   0  0  0  0  0  0  0  0  0  0  0  0
   39.3606  -46.0008    9.3031 N   0  0  0  0  0  0  0  0  0  0  0  0
   38.8180  -41.0598    8.3570 C   0  0  0  0  0  0  0  0  0  0  0  0
   38.8280  -40.2275    7.2404 C   0  0  0  0  0  0  0  0  0  0  0  0
   39.9586  -38.5075    4.7780 N   0  0  0  0  0  0  0  0  0  0  0  0
  1  2  1  0  0  0  0
  2  3  2  0  0  0  0
  3  4  1  0  0  0  0
  4  5  1  0  0  0  0
  5  6  1  0  0  0  0
  5 26  2  0  0  0  0
  6  7  2  0  0  0  0
  7  8  1  0  0  0  0
  8  9  2  0  0  0  0
  9 10  1  0  0  0  0
  9 24  1  0  0  0  0
 10 11  1  0  0  0  0
 11 12  1  0  0  0  0
 12 13  1  0  0  0  0
 13 14  2  0  0  0  0
 14 15  1  0  0  0  0
 15 16  2  0  0  0  0
 16 17  1  0  0  0  0
 17 18  2  0  0  0  0
 18 19  1  0  0  0  0
 19 20  2  0  0  0  0
 20 21  1  0  0  0  0
 20 15  1  0  0  0  0
 21 22  2  0  0  0  0
 21 23  1  0  0  0  0
 23 13  1  0  0  0  0
 24 25  2  0  0  0  0
 25  6  1  0  0  0  0
 26  2  1  0  0  0  0
M  END
>  <CHROM.1>
-57.51435191,-150.38489993,93.02806389,-153.47796461,115.89658904,39.85320886
-42.50721795,7.27358174,-1.70547914,-1.41878473,2.79908620

>  <Name>
design_0

>  <RI>
0

>  <Rbt.Current_Directory>
/home/ziqiaoxu/icml18-jtnn/VAEdesign

>  <Rbt.Executable>
rbdock ($Id: //depot/dev/client3/rdock/2013.1/src/exe/rbdock.cxx#4 $)

>  <Rbt.Library>
libRbt.so (2013.1, Build901 2013/11/27)

>  <Rbt.Parameter_File>
/export/apps/rDock/src/rDock_2013.1_src//data/scripts/dock.prm

>  <Rbt.Receptor>
/home/ziqiaoxu/icml18-jtnn/VAEdesign/targets/RdRp-SARS-CoV-2/pocket_docking.prm

>  <SCORE>
-18.0326

>  <SCORE.INTER>
-23.6959

>  <SCORE.INTER.CONST>
1

>  <SCORE.INTER.POLAR>
-2.50452

>  <SCORE.INTER.REPUL>
0

>  <SCORE.INTER.ROT>
5

>  <SCORE.INTER.VDW>
-25.5805

>  <SCORE.INTER.norm>
-0.91138

>  <SCORE.INTRA>
5.66332

>  <SCORE.INTRA.DIHEDRAL>
11.5067

>  <SCORE.INTRA.DIHEDRAL.0>
1.51046

>  <SCORE.INTRA.POLAR>
0

>  <SCORE.INTRA.POLAR.0>
0

>  <SCORE.INTRA.REPUL>
0

>  <SCORE.INTRA.REPUL.0>
0

>  <SCORE.INTRA.VDW>
-0.0900429

>  <SCORE.INTRA.VDW.0>
-1.71442

>  <SCORE.INTRA.norm>
0.21782

>  <SCORE.RESTR>
0

>  <SCORE.RESTR.CAVITY>
0

>  <SCORE.RESTR.norm>
0

>  <SCORE.SYSTEM>
0

>  <SCORE.SYSTEM.CONST>
0

>  <SCORE.SYSTEM.DIHEDRAL>
0

>  <SCORE.SYSTEM.norm>
0

>  <SCORE.heavy>
26

>  <SCORE.norm>
-0.69356

$$$$
design_0
 OpenBabel05252019093D

 25 27  0  0  0  0  0  0  0  0999 V2000
   39.9027  -46.3330    9.7336 C   0  0  0  0  0  0  0  0  0  0  0  0
   40.6608  -46.1819    8.4724 C   0  0  0  0  0  0  0  0  0  0  0  0
   41.8561  -45.5076    8.4202 C   0  0  0  0  0  0  0  0  0  0  0  0
   42.3176  -45.5395    7.0953 C   0  0  0  0  0  0  0  0  0  0  0  0
   43.5473  -44.8899    6.6683 C   0  0  0  0  0  0  0  0  0  0  0  0
   43.4723  -43.6835    6.2008 O   0  0  0  0  0  0  0  0  0  0  0  0
   44.8399  -45.4221    6.6980 N   0  0  0  0  0  0  0  0  0  0  0  0
   45.9804  -44.6423    6.2357 C   0  0  0  0  0  0  0  0  0  0  0  0
   46.5467  -45.1336    4.9460 C   0  0  0  0  0  0  0  0  0  0  0  0
   45.5276  -45.0598    3.8587 C   0  0  0  0  0  0  0  0  0  0  0  0
   46.0178  -45.6931    2.6273 N   0  0  0  0  0  0  0  0  0  0  0  0
   47.2574  -46.1363    2.3562 C   0  0  0  0  0  0  0  0  0  0  0  0
   47.2742  -46.6622    1.0729 C   0  0  0  0  0  0  0  0  0  0  0  0
   45.9782  -46.5120    0.5855 C   0  0  0  0  0  0  0  0  0  0  0  0
   45.4691  -46.8731   -0.6415 C   0  0  0  0  0  0  0  0  0  0  0  0
   44.1323  -46.6253   -0.9174 C   0  0  0  0  0  0  0  0  0  0  0  0
   43.3466  -46.0160    0.0622 C   0  0  0  0  0  0  0  0  0  0  0  0
   43.9025  -45.6760    1.2680 C   0  0  0  0  0  0  0  0  0  0  0  0
   45.2373  -45.9123    1.5711 C   0  0  0  0  0  0  0  0  0  0  0  0
   41.3555  -46.2442    6.4196 C   0  0  0  0  0  0  0  0  0  0  0  0
   41.4158  -46.5622    4.9631 C   0  0  0  0  0  0  0  0  0  0  0  0
   40.3495  -46.6389    7.2316 N   0  0  0  0  0  0  0  0  0  0  0  0
   39.1381  -47.3976    6.9295 C   0  0  0  0  0  0  0  0  0  0  0  0
   38.2742  -46.6886    5.9290 C   0  0  0  0  0  0  0  0  0  0  0  0
   39.4725  -48.8104    6.5023 C   0  0  0  0  0  0  0  0  0  0  0  0
  1  2  1  0  0  0  0
  2  3  2  0  0  0  0
  3  4  1  0  0  0  0
  4  5  1  0  0  0  0
  4 20  2  0  0  0  0
  5  6  2  0  0  0  0
  5  7  1  0  0  0  0
  7  8  1  0  0  0  0
  8  9  1  0  0  0  0
  9 10  1  0  0  0  0
 10 11  1  0  0  0  0
 11 12  1  0  0  0  0
 12 13  2  0  0  0  0
 13 14  1  0  0  0  0
 14 15  2  0  0  0  0
 15 16  1  0  0  0  0
 16 17  2  0  0  0  0
 17 18  1  0  0  0  0
 18 19  2  0  0  0  0
 19 11  1  0  0  0  0
 19 14  1  0  0  0  0
 20 21  1  0  0  0  0
 20 22  1  0  0  0  0
 22 23  1  0  0  0  0
 22  2  1  0  0  0  0
 23 24  1  0  0  0  0
 23 25  1  0  0  0  0
M  END
>  <CHROM.1>
-93.32478763,-108.88098450,60.94867478,-172.97527071,-9.03576742,119.19127057
43.28238662,-46.03132586,4.64824637,-2.31440554,-0.34491869,-1.81436433

>  <Name>
design_0

>  <RI>
0

>  <Rbt.Current_Directory>
/home/ziqiaoxu/icml18-jtnn/VAEdesign

>  <Rbt.Executable>
rbdock ($Id: //depot/dev/client3/rdock/2013.1/src/exe/rbdock.cxx#4 $)

>  <Rbt.Library>
libRbt.so (2013.1, Build901 2013/11/27)

>  <Rbt.Parameter_File>
/export/apps/rDock/src/rDock_2013.1_src//data/scripts/dock.prm

>  <Rbt.Receptor>
/home/ziqiaoxu/icml18-jtnn/VAEdesign/targets/RdRp-SARS-CoV-2/pocket_docking.prm

>  <SCORE>
-11.7938

>  <SCORE.INTER>
-16.3678

>  <SCORE.INTER.CONST>
1

>  <SCORE.INTER.POLAR>
-0.643593

>  <SCORE.INTER.REPUL>
0

>  <SCORE.INTER.ROT>
6

>  <SCORE.INTER.VDW>
-25.5796

>  <SCORE.INTER.norm>
-0.654713

>  <SCORE.INTRA>
4.57404

>  <SCORE.INTRA.DIHEDRAL>
10.6361

>  <SCORE.INTRA.DIHEDRAL.0>
6.86473

>  <SCORE.INTRA.POLAR>
0

>  <SCORE.INTRA.POLAR.0>
0

>  <SCORE.INTRA.REPUL>
0

>  <SCORE.INTRA.REPUL.0>
0

>  <SCORE.INTRA.VDW>
-0.744007

>  <SCORE.INTRA.VDW.0>
0.330314

>  <SCORE.INTRA.norm>
0.182962

>  <SCORE.RESTR>
0

>  <SCORE.RESTR.CAVITY>
0

>  <SCORE.RESTR.norm>
0

>  <SCORE.SYSTEM>
0

>  <SCORE.SYSTEM.CONST>
0

>  <SCORE.SYSTEM.DIHEDRAL>
0

>  <SCORE.SYSTEM.norm>
0

>  <SCORE.heavy>
25

>  <SCORE.norm>
-0.471752

$$$$
design_12
 OpenBabel05252019093D

 23 24  0  0  0  0  0  0  0  0999 V2000
   40.3068  -46.0051   11.0483 N   0  0  0  0  0  0  0  0  0  0  0  0
   40.7664  -45.2335    9.5683 S   0  0  0  0  0  0  0  0  0  0  0  0
   42.2727  -45.0085    9.5614 O   0  0  0  0  0  0  0  0  0  0  0  0
   40.0523  -43.9264    9.4387 O   0  0  0  0  0  0  0  0  0  0  0  0
   40.3747  -46.3320    8.2581 C   0  0  0  0  0  0  0  0  0  0  0  0
   39.5386  -47.3931    8.4867 C   0  0  0  0  0  0  0  0  0  0  0  0
   39.2687  -48.2179    7.4159 C   0  0  0  0  0  0  0  0  0  0  0  0
   39.8259  -47.9798    6.1497 C   0  0  0  0  0  0  0  0  0  0  0  0
   40.6576  -46.9170    5.9433 C   0  0  0  0  0  0  0  0  0  0  0  0
   41.2749  -46.6258    4.7006 N   0  0  0  0  0  0  0  0  0  0  0  0
   42.4352  -45.8567    4.5641 C   0  0  0  0  0  0  0  0  0  0  0  0
   43.0109  -45.3571    5.5441 O   0  0  0  0  0  0  0  0  0  0  0  0
   42.9858  -45.6386    3.1984 C   0  0  0  0  0  0  0  0  0  0  0  0
   42.4812  -44.4397    2.5002 C   0  0  0  0  0  0  0  0  0  0  0  0
   43.2372  -44.1465    1.2384 C   0  0  0  0  0  0  0  0  0  0  0  0
   42.7940  -42.4791    0.6077 S   0  0  0  0  0  0  0  0  0  0  0  0
   44.2625  -41.7418   -0.1432 C   0  0  0  0  0  0  0  0  0  0  0  0
   45.3639  -42.5081   -0.4631 C   0  0  0  0  0  0  0  0  0  0  0  0
   46.4502  -41.8962   -1.0304 C   0  0  0  0  0  0  0  0  0  0  0  0
   46.4266  -40.5253   -1.2728 C   0  0  0  0  0  0  0  0  0  0  0  0
   45.3320  -39.7545   -0.9567 C   0  0  0  0  0  0  0  0  0  0  0  0
   44.2531  -40.3787   -0.3902 C   0  0  0  0  0  0  0  0  0  0  0  0
   40.9186  -46.0939    7.0376 C   0  0  0  0  0  0  0  0  0  0  0  0
  1  2  1  0  0  0  0
  2  3  2  0  0  0  0
  2  4  2  0  0  0  0
  2  5  1  0  0  0  0
  5  6  2  0  0  0  0
  6  7  1  0  0  0  0
  7  8  2  0  0  0  0
  8  9  1  0  0  0  0
  9 10  1  0  0  0  0
  9 23  2  0  0  0  0
 10 11  1  0  0  0  0
 11 12  2  0  0  0  0
 11 13  1  0  0  0  0
 13 14  1  0  0  0  0
 14 15  1  0  0  0  0
 15 16  1  0  0  0  0
 16 17  1  0  0  0  0
 17 18  2  0  0  0  0
 18 19  1  0  0  0  0
 19 20  2  0  0  0  0
 20 21  1  0  0  0  0
 21 22  2  0  0  0  0
 22 17  1  0  0  0  0
 23  5  1  0  0  0  0
M  END
>  <CHROM.1>
164.30080096,15.21900423,-157.60999872,90.41109393,170.25818304,-168.59445900
145.06696118,15.40324722,42.26464617,-44.49490419,4.59931732,-2.50233761
-1.06352655,-1.97819015

>  <Name>
design_12

>  <RI>
0

>  <Rbt.Current_Directory>
/home/ziqiaoxu/icml18-jtnn/VAEdesign

>  <Rbt.Executable>
rbdock ($Id: //depot/dev/client3/rdock/2013.1/src/exe/rbdock.cxx#4 $)

>  <Rbt.Library>
libRbt.so (2013.1, Build901 2013/11/27)

>  <Rbt.Parameter_File>
/export/apps/rDock/src/rDock_2013.1_src//data/scripts/dock.prm

>  <Rbt.Receptor>
/home/ziqiaoxu/icml18-jtnn/VAEdesign/targets/RdRp-SARS-CoV-2/pocket_docking.prm

>  <SCORE>
-22.8682

>  <SCORE.INTER>
-24.105

>  <SCORE.INTER.CONST>
1

>  <SCORE.INTER.POLAR>
-3.50753

>  <SCORE.INTER.REPUL>
0

>  <SCORE.INTER.ROT>
8

>  <SCORE.INTER.VDW>
-25.5793

>  <SCORE.INTER.norm>
-1.04804

>  <SCORE.INTRA>
1.23674

>  <SCORE.INTRA.DIHEDRAL>
2.84271

>  <SCORE.INTRA.DIHEDRAL.0>
6.90234

>  <SCORE.INTRA.POLAR>
0

>  <SCORE.INTRA.POLAR.0>
0

>  <SCORE.INTRA.REPUL>
0

>  <SCORE.INTRA.REPUL.0>
0

>  <SCORE.INTRA.VDW>
-0.184618

>  <SCORE.INTRA.VDW.0>
-1.13657

>  <SCORE.INTRA.norm>
0.0537713

>  <SCORE.RESTR>
0

>  <SCORE.RESTR.CAVITY>
0

>  <SCORE.RESTR.norm>
0

>  <SCORE.SYSTEM>
0

>  <SCORE.SYSTEM.CONST>
0

>  <SCORE.SYSTEM.DIHEDRAL>
0

>  <SCORE.SYSTEM.norm>
0

>  <SCORE.heavy>
23

>  <SCORE.norm>
-0.99427

$$$$
design_10
 OpenBabel05252019093D

 26 28  0  0  0  0  0  0  0  0999 V2000
   36.4122  -40.9826    6.2963 N   0  0  0  0  0  0  0  0  0  0  0  0
   37.1718  -40.6575    7.4756 C   0  0  0  0  0  0  0  0  0  0  0  0
   36.5660  -40.8833    8.5836 O   0  0  0  0  0  0  0  0  0  0  0  0
   38.5071  -40.0997    7.4807 C   0  0  0  0  0  0  0  0  0  0  0  0
   38.9079  -39.1808    6.5529 C   0  0  0  0  0  0  0  0  0  0  0  0
   38.1418  -38.7204    5.5527 F   0  0  0  0  0  0  0  0  0  0  0  0
   40.2046  -38.6390    6.5996 C   0  0  0  0  0  0  0  0  0  0  0  0
   41.0551  -39.0482    7.5832 C   0  0  0  0  0  0  0  0  0  0  0  0
   40.6460  -39.9793    8.5205 C   0  0  0  0  0  0  0  0  0  0  0  0
   39.3506  -40.5417    8.4989 C   0  0  0  0  0  0  0  0  0  0  0  0
   39.1377  -41.6213    9.3600 N   0  0  0  0  0  0  0  0  0  0  0  0
   40.1313  -42.6681    9.4636 C   0  0  0  0  0  0  0  0  0  0  0  0
   41.2368  -42.5027    8.8754 O   0  0  0  0  0  0  0  0  0  0  0  0
   39.7908  -43.7941   10.2172 N   0  0  0  0  0  0  0  0  0  0  0  0
   40.5372  -44.9634   10.5472 C   0  0  0  0  0  0  0  0  0  0  0  0
   40.3358  -45.8942    9.4164 C   0  0  0  0  0  0  0  0  0  0  0  0
   39.1234  -46.6097    9.3867 C   0  0  0  0  0  0  0  0  0  0  0  0
   38.7872  -47.3934    8.2918 C   0  0  0  0  0  0  0  0  0  0  0  0
   39.6487  -47.4712    7.2302 C   0  0  0  0  0  0  0  0  0  0  0  0
   40.8561  -46.7556    7.2718 C   0  0  0  0  0  0  0  0  0  0  0  0
   41.1895  -45.9716    8.3702 C   0  0  0  0  0  0  0  0  0  0  0  0
   42.4799  -45.3304    8.4694 N   0  0  0  0  0  0  0  0  0  0  0  0
   43.3586  -45.4056    7.4595 C   0  0  0  0  0  0  0  0  0  0  0  0
   44.5262  -44.7480    7.8321 C   0  0  0  0  0  0  0  0  0  0  0  0
   44.3173  -44.2718    9.1074 C   0  0  0  0  0  0  0  0  0  0  0  0
   43.0637  -44.6548    9.4384 N   0  0  0  0  0  0  0  0  0  0  0  0
  1  2  1  0  0  0  0
  2  3  2  0  0  0  0
  2  4  1  0  0  0  0
  4  5  2  0  0  0  0
  5  6  1  0  0  0  0
  5  7  1  0  0  0  0
  7  8  2  0  0  0  0
  8  9  1  0  0  0  0
  9 10  2  0  0  0  0
 10 11  1  0  0  0  0
 10  4  1  0  0  0  0
 11 12  1  0  0  0  0
 12 13  2  0  0  0  0
 12 14  1  0  0  0  0
 14 15  1  0  0  0  0
 15 16  1  0  0  0  0
 16 17  2  0  0  0  0
 17 18  1  0  0  0  0
 18 19  2  0  0  0  0
 19 20  1  0  0  0  0
 20 21  2  0  0  0  0
 21 22  1  0  0  0  0
 21 16  1  0  0  0  0
 22 23  1  0  0  0  0
 23 24  2  0  0  0  0
 24 25  1  0  0  0  0
 25 26  2  0  0  0  0
 26 22  1  0  0  0  0
M  END
>  <CHROM.1>
37.05508502,124.98918071,-86.18174578,-79.23904246,178.92901357,40.13768102
-42.94916676,8.20255685,2.03816507,-0.08719917,-0.19671705

>  <Name>
design_10

>  <RI>
0

>  <Rbt.Current_Directory>
/home/ziqiaoxu/icml18-jtnn/VAEdesign

>  <Rbt.Executable>
rbdock ($Id: //depot/dev/client3/rdock/2013.1/src/exe/rbdock.cxx#4 $)

>  <Rbt.Library>
libRbt.so (2013.1, Build901 2013/11/27)

>  <Rbt.Parameter_File>
/export/apps/rDock/src/rDock_2013.1_src//data/scripts/dock.prm

>  <Rbt.Receptor>
/home/ziqiaoxu/icml18-jtnn/VAEdesign/targets/RdRp-SARS-CoV-2/pocket_docking.prm

>  <SCORE>
-19.9162

>  <SCORE.INTER>
-20.6224

>  <SCORE.INTER.CONST>
1

>  <SCORE.INTER.POLAR>
-1.60133

>  <SCORE.INTER.REPUL>
0

>  <SCORE.INTER.ROT>
5

>  <SCORE.INTER.VDW>
-25.5779

>  <SCORE.INTER.norm>
-0.793169

>  <SCORE.INTRA>
0.706185

>  <SCORE.INTRA.DIHEDRAL>
2.09184

>  <SCORE.INTRA.DIHEDRAL.0>
11.9211

>  <SCORE.INTRA.POLAR>
-0.000770897

>  <SCORE.INTRA.POLAR.0>
0

>  <SCORE.INTRA.REPUL>
0

>  <SCORE.INTRA.REPUL.0>
0

>  <SCORE.INTRA.VDW>
-0.337115

>  <SCORE.INTRA.VDW.0>
-0.955928

>  <SCORE.INTRA.norm>
0.027161

>  <SCORE.RESTR>
0

>  <SCORE.RESTR.CAVITY>
0

>  <SCORE.RESTR.norm>
0

>  <SCORE.SYSTEM>
0

>  <SCORE.SYSTEM.CONST>
0

>  <SCORE.SYSTEM.DIHEDRAL>
0

>  <SCORE.SYSTEM.norm>
0

>  <SCORE.heavy>
26

>  <SCORE.norm>
-0.766008

$$$$
design_1
 OpenBabel05252019093D

 22 24  0  0  0  0  0  0  0  0999 V2000
   45.2356  -43.5813    5.0340 O   0  0  0  0  0  0  0  0  0  0  0  0
   45.5405  -44.7155    5.5277 C   0  0  0  0  0  0  0  0  0  0  0  0
   45.3625  -44.8879    6.9232 N   0  0  0  0  0  0  0  0  0  0  0  0
   44.8583  -43.8647    7.7650 C   0  0  0  0  0  0  0  0  0  0  0  0
   44.0961  -44.3201    8.9755 C   0  0  0  0  0  0  0  0  0  0  0  0
   42.9009  -45.1449    8.5524 C   0  0  0  0  0  0  0  0  0  0  0  0
   41.7814  -45.3639    9.2192 N   0  0  0  0  0  0  0  0  0  0  0  0
   40.8472  -46.1118    8.6904 C   0  0  0  0  0  0  0  0  0  0  0  0
   39.6083  -46.4287    9.2848 C   0  0  0  0  0  0  0  0  0  0  0  0
   38.7216  -47.2163    8.6336 C   0  0  0  0  0  0  0  0  0  0  0  0
   38.9366  -47.7577    7.3854 C   0  0  0  0  0  0  0  0  0  0  0  0
   40.1468  -47.4509    6.7992 C   0  0  0  0  0  0  0  0  0  0  0  0
   41.0848  -46.6369    7.4513 C   0  0  0  0  0  0  0  0  0  0  0  0
   42.6443  -46.0250    7.1116 S   0  0  0  0  0  0  0  0  0  0  0  0
   46.0384  -45.7542    4.6928 N   0  0  0  0  0  0  0  0  0  0  0  0
   46.1946  -45.5216    3.3044 C   0  0  0  0  0  0  0  0  0  0  0  0
   44.9010  -45.5335    2.5304 C   0  0  0  0  0  0  0  0  0  0  0  0
   45.0830  -45.3162    1.0692 C   0  0  0  0  0  0  0  0  0  0  0  0
   43.7091  -45.2135    0.4347 C   0  0  0  0  0  0  0  0  0  0  0  0
   43.5273  -46.4611   -0.3865 C   0  0  0  0  0  0  0  0  0  0  0  0
   44.9290  -46.7878   -0.8319 C   0  0  0  0  0  0  0  0  0  0  0  0
   45.7968  -46.4252    0.3686 C   0  0  0  0  0  0  0  0  0  0  0  0
  1  2  2  0  0  0  0
  2  3  1  0  0  0  0
  2 15  1  0  0  0  0
  3  4  1  0  0  0  0
  4  5  1  0  0  0  0
  5  6  1  0  0  0  0
  6  7  2  0  0  0  0
  7  8  1  0  0  0  0
  8  9  2  0  0  0  0
  9 10  1  0  0  0  0
 10 11  2  0  0  0  0
 11 12  1  0  0  0  0
 12 13  2  0  0  0  0
 13 14  1  0  0  0  0
 13  8  1  0  0  0  0
 14  6  1  0  0  0  0
 15 16  1  0  0  0  0
 16 17  1  0  0  0  0
 17 18  1  0  0  0  0
 18 19  1  0  0  0  0
 19 20  1  0  0  0  0
 20 21  1  0  0  0  0
 21 22  1  0  0  0  0
 22 18  1  0  0  0  0
M  END
>  <CHROM.1>
150.37363510,-59.46205216,-156.32434653,-75.82204901,-178.78709371,-174.46254674
43.32487601,-45.74152033,5.41379142,-1.00912611,0.45308269,1.35188220

>  <Name>
design_1

>  <RI>
0

>  <Rbt.Current_Directory>
/home/ziqiaoxu/icml18-jtnn/VAEdesign

>  <Rbt.Executable>
rbdock ($Id: //depot/dev/client3/rdock/2013.1/src/exe/rbdock.cxx#4 $)

>  <Rbt.Library>
libRbt.so (2013.1, Build901 2013/11/27)

>  <Rbt.Parameter_File>
/export/apps/rDock/src/rDock_2013.1_src//data/scripts/dock.prm

>  <Rbt.Receptor>
/home/ziqiaoxu/icml18-jtnn/VAEdesign/targets/RdRp-SARS-CoV-2/pocket_docking.prm

>  <SCORE>
-20.2823

>  <SCORE.INTER>
-19.4055

>  <SCORE.INTER.CONST>
1

>  <SCORE.INTER.POLAR>
-1.54579

>  <SCORE.INTER.REPUL>
0.00554173

>  <SCORE.INTER.ROT>
6

>  <SCORE.INTER.VDW>
-25.5776

>  <SCORE.INTER.norm>
-0.88207

>  <SCORE.INTRA>
-0.876781

>  <SCORE.INTRA.DIHEDRAL>
0.144937

>  <SCORE.INTRA.DIHEDRAL.0>
3.75458

>  <SCORE.INTRA.POLAR>
0

>  <SCORE.INTRA.POLAR.0>
0

>  <SCORE.INTRA.REPUL>
0

>  <SCORE.INTRA.REPUL.0>
0

>  <SCORE.INTRA.VDW>
-0.949249

>  <SCORE.INTRA.VDW.0>
-0.0343362

>  <SCORE.INTRA.norm>
-0.0398537

>  <SCORE.RESTR>
0

>  <SCORE.RESTR.CAVITY>
0

>  <SCORE.RESTR.norm>
0

>  <SCORE.SYSTEM>
0

>  <SCORE.SYSTEM.CONST>
0

>  <SCORE.SYSTEM.DIHEDRAL>
0

>  <SCORE.SYSTEM.norm>
0

>  <SCORE.heavy>
22

>  <SCORE.norm>
-0.921924

$$$$
design_17
 OpenBabel05252019093D

 24 26  0  0  0  0  0  0  0  0999 V2000
   44.3214  -46.0779    0.4676 C   0  0  0  0  0  0  0  0  0  0  0  0
   45.1844  -46.1693    1.6596 C   0  0  0  0  0  0  0  0  0  0  0  0
   46.4675  -46.6483    1.5728 C   0  0  0  0  0  0  0  0  0  0  0  0
   47.2924  -46.7385    2.6718 C   0  0  0  0  0  0  0  0  0  0  0  0
   46.7990  -46.3330    3.8852 C   0  0  0  0  0  0  0  0  0  0  0  0
   45.4880  -45.8340    4.0319 C   0  0  0  0  0  0  0  0  0  0  0  0
   45.0294  -45.4846    5.3599 C   0  0  0  0  0  0  0  0  0  0  0  0
   45.9806  -45.0069    6.1050 O   0  0  0  0  0  0  0  0  0  0  0  0
   43.7553  -45.5986    5.9062 N   0  0  0  0  0  0  0  0  0  0  0  0
   43.4626  -45.1785    7.2329 C   0  0  0  0  0  0  0  0  0  0  0  0
   44.3289  -44.5464    8.0795 C   0  0  0  0  0  0  0  0  0  0  0  0
   43.9549  -44.1927    9.3816 C   0  0  0  0  0  0  0  0  0  0  0  0
   42.7002  -44.4641    9.8652 C   0  0  0  0  0  0  0  0  0  0  0  0
   41.8043  -45.1044    9.0223 C   0  0  0  0  0  0  0  0  0  0  0  0
   40.2093  -45.4270    9.6609 S   0  0  0  0  0  0  0  0  0  0  0  0
   40.2806  -45.3160   11.1700 O   0  0  0  0  0  0  0  0  0  0  0  0
   39.2839  -44.3759    9.1000 O   0  0  0  0  0  0  0  0  0  0  0  0
   39.6681  -47.0119    9.3099 N   0  0  0  0  0  0  0  0  0  0  0  0
   39.8822  -47.3502    7.9233 C   0  0  0  0  0  0  0  0  0  0  0  0
   38.7679  -47.0645    6.9554 C   0  0  0  0  0  0  0  0  0  0  0  0
   39.1337  -48.5060    7.3187 C   0  0  0  0  0  0  0  0  0  0  0  0
   42.1873  -45.4403    7.7611 C   0  0  0  0  0  0  0  0  0  0  0  0
   44.7160  -45.7625    2.9248 C   0  0  0  0  0  0  0  0  0  0  0  0
   43.3592  -45.2121    2.9245 C   0  0  0  0  0  0  0  0  0  0  0  0
  1  2  1  0  0  0  0
  2  3  2  0  0  0  0
  3  4  1  0  0  0  0
  4  5  2  0  0  0  0
  5  6  1  0  0  0  0
  6  7  1  0  0  0  0
  6 23  2  0  0  0  0
  7  8  2  0  0  0  0
  7  9  1  0  0  0  0
  9 10  1  0  0  0  0
 10 11  2  0  0  0  0
 11 12  1  0  0  0  0
 12 13  2  0  0  0  0
 13 14  1  0  0  0  0
 14 15  1  0  0  0  0
 14 22  2  0  0  0  0
 15 16  2  0  0  0  0
 15 17  2  0  0  0  0
 15 18  1  0  0  0  0
 18 19  1  0  0  0  0
 19 20  1  0  0  0  0
 20 21  1  0  0  0  0
 21 19  1  0  0  0  0
 22 10  1  0  0  0  0
 23 24  1  0  0  0  0
 23  2  1  0  0  0  0
M  END
>  <CHROM.1>
34.14558895,4.81997104,-17.56708016,-47.10742852,-91.39641458,42.84115097
-45.76512500,6.50483629,0.84220420,-0.34288266,-1.90456877

>  <Name>
design_17

>  <RI>
0

>  <Rbt.Current_Directory>
/home/ziqiaoxu/icml18-jtnn/VAEdesign

>  <Rbt.Executable>
rbdock ($Id: //depot/dev/client3/rdock/2013.1/src/exe/rbdock.cxx#4 $)

>  <Rbt.Library>
libRbt.so (2013.1, Build901 2013/11/27)

>  <Rbt.Parameter_File>
/export/apps/rDock/src/rDock_2013.1_src//data/scripts/dock.prm

>  <Rbt.Receptor>
/home/ziqiaoxu/icml18-jtnn/VAEdesign/targets/RdRp-SARS-CoV-2/pocket_docking.prm

>  <SCORE>
-20.2728

>  <SCORE.INTER>
-19.7956

>  <SCORE.INTER.CONST>
1

>  <SCORE.INTER.POLAR>
-1.36028

>  <SCORE.INTER.REPUL>
0

>  <SCORE.INTER.ROT>
5

>  <SCORE.INTER.VDW>
-25.5707

>  <SCORE.INTER.norm>
-0.824819

>  <SCORE.INTRA>
-0.477106

>  <SCORE.INTRA.DIHEDRAL>
-2.40113

>  <SCORE.INTRA.DIHEDRAL.0>
9.04243

>  <SCORE.INTRA.POLAR>
0

>  <SCORE.INTRA.POLAR.0>
0

>  <SCORE.INTRA.REPUL>
0

>  <SCORE.INTRA.REPUL.0>
0

>  <SCORE.INTRA.VDW>
0.723459

>  <SCORE.INTRA.VDW.0>
-1.25772

>  <SCORE.INTRA.norm>
-0.0198794

>  <SCORE.RESTR>
0

>  <SCORE.RESTR.CAVITY>
0

>  <SCORE.RESTR.norm>
0

>  <SCORE.SYSTEM>
0

>  <SCORE.SYSTEM.CONST>
0

>  <SCORE.SYSTEM.DIHEDRAL>
0

>  <SCORE.SYSTEM.norm>
0

>  <SCORE.heavy>
24

>  <SCORE.norm>
-0.844698

$$$$
design_18
 OpenBabel05252019093D

 24 26  0  0  0  0  0  0  0  0999 V2000
   39.2660  -48.6861    6.4308 C   0  0  0  0  0  0  0  0  0  0  0  0
   39.7940  -47.6912    7.4172 C   0  0  0  0  0  0  0  0  0  0  0  0
   39.0749  -47.4422    8.5677 C   0  0  0  0  0  0  0  0  0  0  0  0
   39.5117  -46.5396    9.5071 C   0  0  0  0  0  0  0  0  0  0  0  0
   40.7010  -45.8903    9.2539 C   0  0  0  0  0  0  0  0  0  0  0  0
   41.4509  -46.1095    8.1170 C   0  0  0  0  0  0  0  0  0  0  0  0
   42.7132  -45.3842    7.9046 C   0  0  0  0  0  0  0  0  0  0  0  0
   43.3181  -44.6149    8.8255 N   0  0  0  0  0  0  0  0  0  0  0  0
   44.4349  -44.1289    8.2603 N   0  0  0  0  0  0  0  0  0  0  0  0
   44.5065  -44.5986    7.0102 C   0  0  0  0  0  0  0  0  0  0  0  0
   45.5360  -44.3700    5.9575 C   0  0  0  0  0  0  0  0  0  0  0  0
   45.6596  -45.4911    5.0816 N   0  0  0  0  0  0  0  0  0  0  0  0
   44.9941  -45.4978    3.8394 C   0  0  0  0  0  0  0  0  0  0  0  0
   43.8329  -44.7730    3.6749 C   0  0  0  0  0  0  0  0  0  0  0  0
   43.1290  -44.7331    2.4891 C   0  0  0  0  0  0  0  0  0  0  0  0
   43.6115  -45.4538    1.4165 C   0  0  0  0  0  0  0  0  0  0  0  0
   44.7782  -46.1842    1.5763 C   0  0  0  0  0  0  0  0  0  0  0  0
   45.4731  -46.2170    2.7648 C   0  0  0  0  0  0  0  0  0  0  0  0
   46.9253  -47.1414    2.9216 S   0  0  0  0  0  0  0  0  0  0  0  0
   48.0515  -46.6365    1.6452 C   0  0  0  0  0  0  0  0  0  0  0  0
   46.7085  -48.6126    2.7786 O   0  0  0  0  0  0  0  0  0  0  0  0
   47.5914  -46.8390    4.2494 O   0  0  0  0  0  0  0  0  0  0  0  0
   43.4457  -45.3525    6.8382 O   0  0  0  0  0  0  0  0  0  0  0  0
   40.9835  -47.0119    7.2103 C   0  0  0  0  0  0  0  0  0  0  0  0
  1  2  1  0  0  0  0
  2  3  2  0  0  0  0
  3  4  1  0  0  0  0
  4  5  2  0  0  0  0
  5  6  1  0  0  0  0
  6  7  1  0  0  0  0
  6 24  2  0  0  0  0
  7  8  2  0  0  0  0
  8  9  1  0  0  0  0
  9 10  2  0  0  0  0
 10 11  1  0  0  0  0
 10 23  1  0  0  0  0
 11 12  1  0  0  0  0
 12 13  1  0  0  0  0
 13 14  2  0  0  0  0
 14 15  1  0  0  0  0
 15 16  2  0  0  0  0
 16 17  1  0  0  0  0
 17 18  2  0  0  0  0
 18 19  1  0  0  0  0
 18 13  1  0  0  0  0
 19 20  1  0  0  0  0
 19 21  2  0  0  0  0
 19 22  2  0  0  0  0
 23  7  1  0  0  0  0
 24  2  1  0  0  0  0
M  END
>  <CHROM.1>
8.96133158,149.79339888,97.74961494,-27.35260211,-125.26230695,43.83967411
-46.14694178,5.38817951,2.46055496,0.39056539,1.12403265

>  <Name>
design_18

>  <RI>
0

>  <Rbt.Current_Directory>
/home/ziqiaoxu/icml18-jtnn/VAEdesign

>  <Rbt.Executable>
rbdock ($Id: //depot/dev/client3/rdock/2013.1/src/exe/rbdock.cxx#4 $)

>  <Rbt.Library>
libRbt.so (2013.1, Build901 2013/11/27)

>  <Rbt.Parameter_File>
/export/apps/rDock/src/rDock_2013.1_src//data/scripts/dock.prm

>  <Rbt.Receptor>
/home/ziqiaoxu/icml18-jtnn/VAEdesign/targets/RdRp-SARS-CoV-2/pocket_docking.prm

>  <SCORE>
-18.447

>  <SCORE.INTER>
-18.0024

>  <SCORE.INTER.CONST>
1

>  <SCORE.INTER.POLAR>
-0.845186

>  <SCORE.INTER.REPUL>
0.00827612

>  <SCORE.INTER.ROT>
5

>  <SCORE.INTER.VDW>
-25.5701

>  <SCORE.INTER.norm>
-0.750099

>  <SCORE.INTRA>
-0.444636

>  <SCORE.INTRA.DIHEDRAL>
3.01347

>  <SCORE.INTRA.DIHEDRAL.0>
4.936

>  <SCORE.INTRA.POLAR>
-0.240562

>  <SCORE.INTRA.POLAR.0>
-0.00191288

>  <SCORE.INTRA.REPUL>
0

>  <SCORE.INTRA.REPUL.0>
0

>  <SCORE.INTRA.VDW>
-1.13346

>  <SCORE.INTRA.VDW.0>
0.154566

>  <SCORE.INTRA.norm>
-0.0185265

>  <SCORE.RESTR>
0

>  <SCORE.RESTR.CAVITY>
0

>  <SCORE.RESTR.norm>
0

>  <SCORE.SYSTEM>
0

>  <SCORE.SYSTEM.CONST>
0

>  <SCORE.SYSTEM.DIHEDRAL>
0

>  <SCORE.SYSTEM.norm>
0

>  <SCORE.heavy>
24

>  <SCORE.norm>
-0.768626

$$$$
design_9
 OpenBabel05252019093D

 23 24  0  0  0  0  0  0  0  0999 V2000
   44.4685  -43.8131   12.4972 C   0  0  0  0  0  0  0  0  0  0  0  0
   45.2406  -44.5602   11.4392 C   0  0  0  0  0  0  0  0  0  0  0  0
   45.1569  -43.7905   10.1416 C   0  0  1  0  0  0  0  0  0  0  0  0
   46.2112  -42.6927   10.0964 C   0  0  0  0  0  0  0  0  0  0  0  0
   45.2171  -44.6658    9.0136 N   0  0  0  0  0  0  0  0  0  0  0  0
   44.4714  -44.4809    7.8191 C   0  0  0  0  0  0  0  0  0  0  0  0
   43.7129  -43.4828    7.7563 O   0  0  0  0  0  0  0  0  0  0  0  0
   44.5594  -45.3613    6.7384 N   0  0  0  0  0  0  0  0  0  0  0  0
   43.8196  -45.1929    5.5316 C   0  0  0  0  0  0  0  0  0  0  0  0
   42.5841  -46.0583    5.5194 C   0  0  0  0  0  0  0  0  0  0  0  0
   42.2349  -46.4774    4.3993 O   0  0  0  0  0  0  0  0  0  0  0  0
   41.9184  -46.3367    6.7154 N   0  0  0  0  0  0  0  0  0  0  0  0
   40.7795  -47.0980    6.9371 C   0  0  0  0  0  0  0  0  0  0  0  0
   40.2406  -47.9945    6.0489 C   0  0  0  0  0  0  0  0  0  0  0  0
   39.0842  -48.7455    6.3148 C   0  0  0  0  0  0  0  0  0  0  0  0
   38.4700  -48.5683    7.5227 C   0  0  0  0  0  0  0  0  0  0  0  0
   38.9632  -47.6877    8.4469 C   0  0  0  0  0  0  0  0  0  0  0  0
   40.0958  -46.9673    8.1587 C   0  0  0  0  0  0  0  0  0  0  0  0
   40.6180  -46.0466    9.1155 N   0  0  0  0  0  0  0  0  0  0  0  0
   40.2077  -45.7432   10.3490 C   0  0  0  0  0  0  0  0  0  0  0  0
   41.0473  -44.7793   10.8889 C   0  0  0  0  0  0  0  0  0  0  0  0
   41.9765  -44.5275    9.9106 C   0  0  0  0  0  0  0  0  0  0  0  0
   41.6949  -45.2953    8.8701 N   0  0  0  0  0  0  0  0  0  0  0  0
  1  2  1  0  0  0  0
  2  3  1  0  0  0  0
  3  4  1  6  0  0  0
  3  5  1  0  0  0  0
  5  6  1  0  0  0  0
  6  7  2  0  0  0  0
  6  8  1  0  0  0  0
  8  9  1  0  0  0  0
  9 10  1  0  0  0  0
 10 11  2  0  0  0  0
 10 12  1  0  0  0  0
 12 13  1  0  0  0  0
 13 14  2  0  0  0  0
 14 15  1  0  0  0  0
 15 16  2  0  0  0  0
 16 17  1  0  0  0  0
 17 18  2  0  0  0  0
 18 19  1  0  0  0  0
 18 13  1  0  0  0  0
 19 20  1  0  0  0  0
 20 21  2  0  0  0  0
 21 22  1  0  0  0  0
 22 23  2  0  0  0  0
 23 19  1  0  0  0  0
M  END
>  <CHROM.1>
83.78500652,142.74997102,-98.61996879,-147.64019753,16.05663448,-178.13337301
42.39337617,-45.61278916,8.27724325,0.64487996,0.50316684,1.30528890

>  <Name>
design_9

>  <RI>
0

>  <Rbt.Current_Directory>
/home/ziqiaoxu/icml18-jtnn/VAEdesign

>  <Rbt.Executable>
rbdock ($Id: //depot/dev/client3/rdock/2013.1/src/exe/rbdock.cxx#4 $)

>  <Rbt.Library>
libRbt.so (2013.1, Build901 2013/11/27)

>  <Rbt.Parameter_File>
/export/apps/rDock/src/rDock_2013.1_src//data/scripts/dock.prm

>  <Rbt.Receptor>
/home/ziqiaoxu/icml18-jtnn/VAEdesign/targets/RdRp-SARS-CoV-2/pocket_docking.prm

>  <SCORE>
-30.1073

>  <SCORE.INTER>
-20.2522

>  <SCORE.INTER.CONST>
1

>  <SCORE.INTER.POLAR>
-1.78885

>  <SCORE.INTER.REPUL>
0

>  <SCORE.INTER.ROT>
6

>  <SCORE.INTER.VDW>
-25.5701

>  <SCORE.INTER.norm>
-0.880529

>  <SCORE.INTRA>
-9.85517

>  <SCORE.INTRA.DIHEDRAL>
-9.81052

>  <SCORE.INTRA.DIHEDRAL.0>
16.5344

>  <SCORE.INTRA.POLAR>
-0.373927

>  <SCORE.INTRA.POLAR.0>
0

>  <SCORE.INTRA.REPUL>
0

>  <SCORE.INTRA.REPUL.0>
0

>  <SCORE.INTRA.VDW>
-3.67856

>  <SCORE.INTRA.VDW.0>
1.89303

>  <SCORE.INTRA.norm>
-0.428486

>  <SCORE.RESTR>
0

>  <SCORE.RESTR.CAVITY>
0

>  <SCORE.RESTR.norm>
0

>  <SCORE.SYSTEM>
0

>  <SCORE.SYSTEM.CONST>
0

>  <SCORE.SYSTEM.DIHEDRAL>
0

>  <SCORE.SYSTEM.norm>
0

>  <SCORE.heavy>
23

>  <SCORE.norm>
-1.30901

$$$$
design_5
 OpenBabel05252019093D

 25 27  0  0  0  0  0  0  0  0999 V2000
   38.4887  -48.9898    6.6341 C   0  0  0  0  0  0  0  0  0  0  0  0
   39.0085  -47.8795    7.5227 C   0  0  0  0  0  0  0  0  0  0  0  0
   40.1873  -47.2911    7.4955 N   0  0  0  0  0  0  0  0  0  0  0  0
   40.4560  -46.3476    8.3391 C   0  0  0  0  0  0  0  0  0  0  0  0
   41.7646  -45.6471    8.3487 C   0  0  0  0  0  0  0  0  0  0  0  0
   42.1401  -44.7955    9.3641 C   0  0  0  0  0  0  0  0  0  0  0  0
   43.3605  -44.1756    9.3813 C   0  0  0  0  0  0  0  0  0  0  0  0
   44.2750  -44.4000    8.3406 C   0  0  0  0  0  0  0  0  0  0  0  0
   43.9383  -45.2382    7.3157 C   0  0  0  0  0  0  0  0  0  0  0  0
   44.8441  -45.5376    6.2806 N   0  0  0  0  0  0  0  0  0  0  0  0
   44.6375  -45.5359    4.9006 C   0  0  0  0  0  0  0  0  0  0  0  0
   43.5294  -45.2470    4.4054 O   0  0  0  0  0  0  0  0  0  0  0  0
   45.6975  -45.8644    3.9326 C   0  0  0  0  0  0  0  0  0  0  0  0
   46.9744  -46.1775    4.3853 C   0  0  0  0  0  0  0  0  0  0  0  0
   47.9946  -46.5066    3.5224 C   0  0  0  0  0  0  0  0  0  0  0  0
   47.7914  -46.5404    2.1482 C   0  0  0  0  0  0  0  0  0  0  0  0
   48.8889  -46.9136    1.2171 C   0  0  0  0  0  0  0  0  0  0  0  0
   49.3766  -45.6385    0.5306 C   0  0  0  0  0  0  0  0  0  0  0  0
   50.0688  -47.4990    1.9671 C   0  0  0  0  0  0  0  0  0  0  0  0
   48.3362  -47.8886    0.2044 C   0  0  0  0  0  0  0  0  0  0  0  0
   46.5223  -46.2275    1.7020 C   0  0  0  0  0  0  0  0  0  0  0  0
   45.4850  -45.8931    2.5806 C   0  0  0  0  0  0  0  0  0  0  0  0
   42.6777  -45.8410    7.3541 C   0  0  0  0  0  0  0  0  0  0  0  0
   39.4715  -46.0060    9.2378 C   0  0  0  0  0  0  0  0  0  0  0  0
   38.2148  -47.0752    8.8025 S   0  0  0  0  0  0  0  0  0  0  0  0
  1  2  1  0  0  0  0
  2  3  2  0  0  0  0
  3  4  1  0  0  0  0
  4  5  1  0  0  0  0
  4 24  2  0  0  0  0
  5  6  2  0  0  0  0
  6  7  1  0  0  0  0
  7  8  2  0  0  0  0
  8  9  1  0  0  0  0
  9 10  1  0  0  0  0
  9 23  2  0  0  0  0
 10 11  1  0  0  0  0
 11 12  2  0  0  0  0
 11 13  1  0  0  0  0
 13 14  2  0  0  0  0
 14 15  1  0  0  0  0
 15 16  2  0  0  0  0
 16 17  1  0  0  0  0
 16 21  1  0  0  0  0
 17 18  1  0  0  0  0
 17 19  1  0  0  0  0
 17 20  1  0  0  0  0
 21 22  2  0  0  0  0
 22 13  1  0  0  0  0
 23  5  1  0  0  0  0
 24 25  1  0  0  0  0
 25  2  1  0  0  0  0
M  END
>  <CHROM.1>
-169.54392319,-132.59030753,-0.83744344,-105.54280353,43.89053211,-46.27427025
5.55009785,2.59647840,0.40434224,1.00032708

>  <Name>
design_5

>  <RI>
0

>  <Rbt.Current_Directory>
/home/ziqiaoxu/icml18-jtnn/VAEdesign

>  <Rbt.Executable>
rbdock ($Id: //depot/dev/client3/rdock/2013.1/src/exe/rbdock.cxx#4 $)

>  <Rbt.Library>
libRbt.so (2013.1, Build901 2013/11/27)

>  <Rbt.Parameter_File>
/export/apps/rDock/src/rDock_2013.1_src//data/scripts/dock.prm

>  <Rbt.Receptor>
/home/ziqiaoxu/icml18-jtnn/VAEdesign/targets/RdRp-SARS-CoV-2/pocket_docking.prm

>  <SCORE>
-17.5059

>  <SCORE.INTER>
-17.8521

>  <SCORE.INTER.CONST>
1

>  <SCORE.INTER.POLAR>
-0.495483

>  <SCORE.INTER.REPUL>
0

>  <SCORE.INTER.ROT>
4

>  <SCORE.INTER.VDW>
-25.5674

>  <SCORE.INTER.norm>
-0.714083

>  <SCORE.INTRA>
0.346144

>  <SCORE.INTRA.DIHEDRAL>
2.86039

>  <SCORE.INTRA.DIHEDRAL.0>
5.49027

>  <SCORE.INTRA.POLAR>
0

>  <SCORE.INTRA.POLAR.0>
0

>  <SCORE.INTRA.REPUL>
0

>  <SCORE.INTRA.REPUL.0>
0

>  <SCORE.INTRA.VDW>
-1.08405

>  <SCORE.INTRA.VDW.0>
5.42511

>  <SCORE.INTRA.norm>
0.0138458

>  <SCORE.RESTR>
0

>  <SCORE.RESTR.CAVITY>
0

>  <SCORE.RESTR.norm>
0

>  <SCORE.SYSTEM>
0

>  <SCORE.SYSTEM.CONST>
0

>  <SCORE.SYSTEM.DIHEDRAL>
0

>  <SCORE.SYSTEM.norm>
0

>  <SCORE.heavy>
25

>  <SCORE.norm>
-0.700238

$$$$
design_4
 OpenBabel05252019093D

 25 27  0  0  0  0  0  0  0  0999 V2000
   39.8312  -47.8873    5.8567 C   0  0  0  0  0  0  0  0  0  0  0  0
   40.3595  -47.9981    7.1488 O   0  0  0  0  0  0  0  0  0  0  0  0
   40.4225  -46.8919    7.9862 C   0  0  0  0  0  0  0  0  0  0  0  0
   39.6316  -46.8645    9.0980 C   0  0  0  0  0  0  0  0  0  0  0  0
   39.7098  -45.7425    9.9277 C   0  0  0  0  0  0  0  0  0  0  0  0
   40.5527  -44.7099    9.6295 C   0  0  0  0  0  0  0  0  0  0  0  0
   40.6161  -43.5324   10.5212 C   0  0  0  0  0  0  0  0  0  0  0  0
   39.3059  -42.8091   10.3918 C   0  0  0  0  0  0  0  0  0  0  0  0
   39.4252  -41.5948    9.6406 N   0  0  0  0  0  0  0  0  0  0  0  0
   39.4875  -41.5707    8.2422 C   0  0  0  0  0  0  0  0  0  0  0  0
   39.4512  -42.6097    7.5660 O   0  0  0  0  0  0  0  0  0  0  0  0
   39.5984  -40.2897    7.5593 C   0  0  0  0  0  0  0  0  0  0  0  0
   40.2816  -39.2250    8.1414 C   0  0  0  0  0  0  0  0  0  0  0  0
   40.4002  -38.0051    7.5083 C   0  0  0  0  0  0  0  0  0  0  0  0
   39.8432  -37.7895    6.2651 C   0  0  0  0  0  0  0  0  0  0  0  0
   39.9674  -36.4646    5.5733 C   0  0  0  0  0  0  0  0  0  0  0  0
   40.2772  -36.7996    4.1766 N   0  0  0  0  0  0  0  0  0  0  0  0
   41.5076  -37.0584    3.6835 C   0  0  0  0  0  0  0  0  0  0  0  0
   41.3651  -37.3188    2.3762 N   0  0  0  0  0  0  0  0  0  0  0  0
   40.0693  -37.2234    2.0627 C   0  0  0  0  0  0  0  0  0  0  0  0
   39.4166  -36.9039    3.1808 N   0  0  0  0  0  0  0  0  0  0  0  0
   39.1654  -38.8416    5.6850 C   0  0  0  0  0  0  0  0  0  0  0  0
   39.0466  -40.0613    6.3178 C   0  0  0  0  0  0  0  0  0  0  0  0
   41.3323  -44.7648    8.5102 C   0  0  0  0  0  0  0  0  0  0  0  0
   41.2840  -45.8705    7.6531 C   0  0  0  0  0  0  0  0  0  0  0  0
  1  2  1  0  0  0  0
  2  3  1  0  0  0  0
  3  4  2  0  0  0  0
  4  5  1  0  0  0  0
  5  6  2  0  0  0  0
  6  7  1  0  0  0  0
  6 24  1  0  0  0  0
  7  8  1  0  0  0  0
  8  9  1  0  0  0  0
  9 10  1  0  0  0  0
 10 11  2  0  0  0  0
 10 12  1  0  0  0  0
 12 13  2  0  0  0  0
 13 14  1  0  0  0  0
 14 15  2  0  0  0  0
 15 16  1  0  0  0  0
 15 22  1  0  0  0  0
 16 17  1  0  0  0  0
 17 18  1  0  0  0  0
 18 19  2  0  0  0  0
 19 20  1  0  0  0  0
 20 21  2  0  0  0  0
 21 17  1  0  0  0  0
 22 23  2  0  0  0  0
 23 12  1  0  0  0  0
 24 25  2  0  0  0  0
 25  3  1  0  0  0  0
M  END
>  <CHROM.1>
112.29559534,-68.67366135,-106.46091734,78.81404853,32.35102552,136.95929012
-84.61901315,40.08794957,-41.59903957,6.97469196,-1.59193595,1.44606149,-0.42601098

>  <Name>
design_4

>  <RI>
0

>  <Rbt.Current_Directory>
/home/ziqiaoxu/icml18-jtnn/VAEdesign

>  <Rbt.Executable>
rbdock ($Id: //depot/dev/client3/rdock/2013.1/src/exe/rbdock.cxx#4 $)

>  <Rbt.Library>
libRbt.so (2013.1, Build901 2013/11/27)

>  <Rbt.Parameter_File>
/export/apps/rDock/src/rDock_2013.1_src//data/scripts/dock.prm

>  <Rbt.Receptor>
/home/ziqiaoxu/icml18-jtnn/VAEdesign/targets/RdRp-SARS-CoV-2/pocket_docking.prm

>  <SCORE>
-20.4999

>  <SCORE.INTER>
-18.0072

>  <SCORE.INTER.CONST>
1

>  <SCORE.INTER.POLAR>
-1.42488

>  <SCORE.INTER.REPUL>
0

>  <SCORE.INTER.ROT>
7

>  <SCORE.INTER.VDW>
-25.5626

>  <SCORE.INTER.norm>
-0.720289

>  <SCORE.INTRA>
-2.49268

>  <SCORE.INTRA.DIHEDRAL>
0.0112775

>  <SCORE.INTRA.DIHEDRAL.0>
17.6459

>  <SCORE.INTRA.POLAR>
0

>  <SCORE.INTRA.POLAR.0>
0

>  <SCORE.INTRA.REPUL>
0

>  <SCORE.INTRA.REPUL.0>
0

>  <SCORE.INTRA.VDW>
-2.49832

>  <SCORE.INTRA.VDW.0>
1.26477

>  <SCORE.INTRA.norm>
-0.0997071

>  <SCORE.RESTR>
0

>  <SCORE.RESTR.CAVITY>
0

>  <SCORE.RESTR.norm>
0

>  <SCORE.SYSTEM>
0

>  <SCORE.SYSTEM.CONST>
0

>  <SCORE.SYSTEM.DIHEDRAL>
0

>  <SCORE.SYSTEM.norm>
0

>  <SCORE.heavy>
25

>  <SCORE.norm>
-0.819996

$$$$
design_10
 OpenBabel05252019093D

 23 25  0  0  0  0  0  0  0  0999 V2000
   45.6740  -44.4493    6.5625 C   0  0  0  0  0  0  0  0  0  0  0  0
   44.4519  -44.6686    7.4028 C   0  0  0  0  0  0  0  0  0  0  0  0
   43.4614  -45.4863    6.9009 C   0  0  0  0  0  0  0  0  0  0  0  0
   42.3289  -45.7114    7.6391 C   0  0  0  0  0  0  0  0  0  0  0  0
   42.1467  -45.1399    8.8815 C   0  0  0  0  0  0  0  0  0  0  0  0
   40.6877  -45.3869    9.7964 S   0  0  0  0  0  0  0  0  0  0  0  0
   41.0259  -45.2985   11.2770 O   0  0  0  0  0  0  0  0  0  0  0  0
   39.7369  -44.2076    9.5652 O   0  0  0  0  0  0  0  0  0  0  0  0
   39.9418  -46.8466    9.4042 N   0  0  0  0  0  0  0  0  0  0  0  0
   39.1895  -47.1053    8.2436 C   0  0  0  0  0  0  0  0  0  0  0  0
   39.1057  -48.3187    7.6019 C   0  0  0  0  0  0  0  0  0  0  0  0
   38.3637  -48.5010    6.4384 C   0  0  0  0  0  0  0  0  0  0  0  0
   37.7101  -47.3988    5.9518 C   0  0  0  0  0  0  0  0  0  0  0  0
   37.7801  -46.1770    6.5753 C   0  0  0  0  0  0  0  0  0  0  0  0
   37.0928  -45.0676    6.0418 N   0  0  0  0  0  0  0  0  0  0  0  0
   36.1123  -45.1137    5.1437 C   0  0  0  0  0  0  0  0  0  0  0  0
   35.7382  -43.8396    4.9098 N   0  0  0  0  0  0  0  0  0  0  0  0
   36.4843  -43.0435    5.6573 N   0  0  0  0  0  0  0  0  0  0  0  0
   37.3103  -43.8105    6.3461 N   0  0  0  0  0  0  0  0  0  0  0  0
   38.5073  -46.0009    7.7153 C   0  0  0  0  0  0  0  0  0  0  0  0
   43.1746  -44.3143    9.3598 C   0  0  0  0  0  0  0  0  0  0  0  0
   44.3099  -44.0798    8.6362 C   0  0  0  0  0  0  0  0  0  0  0  0
   45.3627  -43.1973    9.1944 C   0  0  0  0  0  0  0  0  0  0  0  0
  1  2  1  0  0  0  0
  2  3  2  0  0  0  0
  3  4  1  0  0  0  0
  4  5  2  0  0  0  0
  5  6  1  0  0  0  0
  5 21  1  0  0  0  0
  6  7  2  0  0  0  0
  6  8  2  0  0  0  0
  6  9  1  0  0  0  0
  9 10  1  0  0  0  0
 10 11  2  0  0  0  0
 11 12  1  0  0  0  0
 12 13  2  0  0  0  0
 13 14  1  0  0  0  0
 14 15  1  0  0  0  0
 14 20  2  0  0  0  0
 15 16  1  0  0  0  0
 16 17  2  0  0  0  0
 17 18  1  0  0  0  0
 18 19  2  0  0  0  0
 19 15  1  0  0  0  0
 20 10  1  0  0  0  0
 21 22  2  0  0  0  0
 22 23  1  0  0  0  0
 22  2  1  0  0  0  0
M  END
>  <CHROM.1>
150.82016163,-76.31036174,147.98636161,16.48885562,40.27507043,-45.32050462
7.78439105,-0.19455851,-0.31837797,-0.87826039

>  <Name>
design_10

>  <RI>
0

>  <Rbt.Current_Directory>
/home/ziqiaoxu/icml18-jtnn/VAEdesign

>  <Rbt.Executable>
rbdock ($Id: //depot/dev/client3/rdock/2013.1/src/exe/rbdock.cxx#4 $)

>  <Rbt.Library>
libRbt.so (2013.1, Build901 2013/11/27)

>  <Rbt.Parameter_File>
/export/apps/rDock/src/rDock_2013.1_src//data/scripts/dock.prm

>  <Rbt.Receptor>
/home/ziqiaoxu/icml18-jtnn/VAEdesign/targets/RdRp-SARS-CoV-2/pocket_docking.prm

>  <SCORE>
-22.7027

>  <SCORE.INTER>
-19.8898

>  <SCORE.INTER.CONST>
1

>  <SCORE.INTER.POLAR>
-1.2971

>  <SCORE.INTER.REPUL>
0.136522

>  <SCORE.INTER.ROT>
4

>  <SCORE.INTER.VDW>
-25.5623

>  <SCORE.INTER.norm>
-0.864775

>  <SCORE.INTRA>
-2.81286

>  <SCORE.INTRA.DIHEDRAL>
-7.53701

>  <SCORE.INTRA.DIHEDRAL.0>
14.3668

>  <SCORE.INTRA.POLAR>
0

>  <SCORE.INTRA.POLAR.0>
0

>  <SCORE.INTRA.REPUL>
0.0711147

>  <SCORE.INTRA.REPUL.0>
0

>  <SCORE.INTRA.VDW>
0.600071

>  <SCORE.INTRA.VDW.0>
-2.18306

>  <SCORE.INTRA.norm>
-0.122298

>  <SCORE.RESTR>
0

>  <SCORE.RESTR.CAVITY>
0

>  <SCORE.RESTR.norm>
0

>  <SCORE.SYSTEM>
0

>  <SCORE.SYSTEM.CONST>
0

>  <SCORE.SYSTEM.DIHEDRAL>
0

>  <SCORE.SYSTEM.norm>
0

>  <SCORE.heavy>
23

>  <SCORE.norm>
-0.987073

$$$$
design_1
 OpenBabel05252019093D

 26 29  0  0  0  0  0  0  0  0999 V2000
   41.0794  -35.9752    3.4742 C   0  0  0  0  0  0  0  0  0  0  0  0
   40.3407  -37.1040    4.1074 C   0  0  0  0  0  0  0  0  0  0  0  0
   39.3292  -37.8239    3.6018 N   0  0  0  0  0  0  0  0  0  0  0  0
   38.9442  -38.7365    4.4793 N   0  0  0  0  0  0  0  0  0  0  0  0
   39.7137  -38.6209    5.5880 C   0  0  0  0  0  0  0  0  0  0  0  0
   39.6376  -39.4169    6.8102 C   0  0  0  0  0  0  0  0  0  0  0  0
   40.4860  -39.1969    7.8716 C   0  0  0  0  0  0  0  0  0  0  0  0
   40.4097  -39.9548    9.0487 C   0  0  0  0  0  0  0  0  0  0  0  0
   39.4703  -40.9568    9.1826 C   0  0  0  0  0  0  0  0  0  0  0  0
   39.3456  -41.7862   10.4186 C   0  0  0  0  0  0  0  0  0  0  0  0
   39.5288  -43.1802   10.2135 N   0  0  0  0  0  0  0  0  0  0  0  0
   40.6378  -43.6425    9.4529 C   0  0  0  0  0  0  0  0  0  0  0  0
   41.4243  -42.7824    8.9841 O   0  0  0  0  0  0  0  0  0  0  0  0
   40.8621  -45.1057    9.2172 C   0  0  0  0  0  0  0  0  0  0  0  0
   39.5579  -45.7074    8.8672 C   0  0  0  0  0  0  0  0  0  0  0  0
   38.8829  -46.7165    9.5184 C   0  0  0  0  0  0  0  0  0  0  0  0
   37.7106  -46.9870    8.8752 N   0  0  0  0  0  0  0  0  0  0  0  0
   37.6059  -46.1697    7.8109 C   0  0  0  0  0  0  0  0  0  0  0  0
   36.6414  -46.0137    6.8323 C   0  0  0  0  0  0  0  0  0  0  0  0
   36.8091  -45.0645    5.8383 C   0  0  0  0  0  0  0  0  0  0  0  0
   37.9638  -44.2818    5.8538 C   0  0  0  0  0  0  0  0  0  0  0  0
   38.9310  -44.4230    6.8170 C   0  0  0  0  0  0  0  0  0  0  0  0
   38.7315  -45.3760    7.7894 C   0  0  0  0  0  0  0  0  0  0  0  0
   38.6290  -41.1629    8.1083 C   0  0  0  0  0  0  0  0  0  0  0  0
   38.7013  -40.4205    6.9503 C   0  0  0  0  0  0  0  0  0  0  0  0
   40.5527  -37.6194    5.3292 N   0  0  0  0  0  0  0  0  0  0  0  0
  1  2  1  0  0  0  0
  2  3  2  0  0  0  0
  3  4  1  0  0  0  0
  4  5  1  0  0  0  0
  5  6  1  0  0  0  0
  5 26  2  0  0  0  0
  6  7  2  0  0  0  0
  7  8  1  0  0  0  0
  8  9  2  0  0  0  0
  9 10  1  0  0  0  0
  9 24  1  0  0  0  0
 10 11  1  0  0  0  0
 11 12  1  0  0  0  0
 12 13  2  0  0  0  0
 12 14  1  0  0  0  0
 14 15  1  0  0  0  0
 15 16  2  0  0  0  0
 16 17  1  0  0  0  0
 17 18  1  0  0  0  0
 18 19  2  0  0  0  0
 19 20  1  0  0  0  0
 20 21  2  0  0  0  0
 21 22  1  0  0  0  0
 22 23  2  0  0  0  0
 23 15  1  0  0  0  0
 23 18  1  0  0  0  0
 24 25  2  0  0  0  0
 25  6  1  0  0  0  0
 26  2  1  0  0  0  0
M  END
>  <CHROM.1>
179.92213180,-120.32444018,47.55141251,44.05799989,-120.51116710,39.32198163
-42.05945590,7.34523176,1.25444283,-0.99664420,-0.69426786

>  <Name>
design_1

>  <RI>
0

>  <Rbt.Current_Directory>
/home/ziqiaoxu/icml18-jtnn/VAEdesign

>  <Rbt.Executable>
rbdock ($Id: //depot/dev/client3/rdock/2013.1/src/exe/rbdock.cxx#4 $)

>  <Rbt.Library>
libRbt.so (2013.1, Build901 2013/11/27)

>  <Rbt.Parameter_File>
/export/apps/rDock/src/rDock_2013.1_src//data/scripts/dock.prm

>  <Rbt.Receptor>
/home/ziqiaoxu/icml18-jtnn/VAEdesign/targets/RdRp-SARS-CoV-2/pocket_docking.prm

>  <SCORE>
-22.8155

>  <SCORE.INTER>
-21.1842

>  <SCORE.INTER.CONST>
1

>  <SCORE.INTER.POLAR>
-2.24306

>  <SCORE.INTER.REPUL>
0.320756

>  <SCORE.INTER.ROT>
5

>  <SCORE.INTER.VDW>
-25.5616

>  <SCORE.INTER.norm>
-0.814777

>  <SCORE.INTRA>
-1.63129

>  <SCORE.INTRA.DIHEDRAL>
-0.491531

>  <SCORE.INTRA.DIHEDRAL.0>
3.76179

>  <SCORE.INTRA.POLAR>
0

>  <SCORE.INTRA.POLAR.0>
0

>  <SCORE.INTRA.REPUL>
0

>  <SCORE.INTRA.REPUL.0>
0

>  <SCORE.INTRA.VDW>
-1.38553

>  <SCORE.INTRA.VDW.0>
-1.89206

>  <SCORE.INTRA.norm>
-0.062742

>  <SCORE.RESTR>
0

>  <SCORE.RESTR.CAVITY>
0

>  <SCORE.RESTR.norm>
0

>  <SCORE.SYSTEM>
0

>  <SCORE.SYSTEM.CONST>
0

>  <SCORE.SYSTEM.DIHEDRAL>
0

>  <SCORE.SYSTEM.norm>
0

>  <SCORE.heavy>
26

>  <SCORE.norm>
-0.877519

$$$$
design_12
 OpenBabel05252019093D

 22 23  0  0  0  0  0  0  0  0999 V2000
   40.2243  -46.0567   11.0241 N   0  0  0  0  0  0  0  0  0  0  0  0
   39.9080  -45.7097    9.3584 S   0  0  0  0  0  0  0  0  0  0  0  0
   39.1108  -46.7948    8.7116 O   0  0  0  0  0  0  0  0  0  0  0  0
   39.1026  -44.4268    9.3297 O   0  0  0  0  0  0  0  0  0  0  0  0
   41.4530  -45.4778    8.5686 C   0  0  0  0  0  0  0  0  0  0  0  0
   41.7465  -46.1220    7.3846 C   0  0  0  0  0  0  0  0  0  0  0  0
   42.9825  -45.9323    6.7592 C   0  0  0  0  0  0  0  0  0  0  0  0
   43.9528  -45.1064    7.2851 C   0  0  0  0  0  0  0  0  0  0  0  0
   45.2574  -44.8870    6.6538 C   0  0  0  0  0  0  0  0  0  0  0  0
   46.0850  -44.1717    7.2458 O   0  0  0  0  0  0  0  0  0  0  0  0
   45.6082  -45.4541    5.4051 N   0  0  0  0  0  0  0  0  0  0  0  0
   46.9269  -45.1766    4.8629 C   0  0  0  0  0  0  0  0  0  0  0  0
   46.8775  -45.0625    3.3551 C   0  0  0  0  0  0  0  0  0  0  0  0
   46.4801  -46.4226    2.8221 C   0  0  0  0  0  0  0  0  0  0  0  0
   45.5751  -46.3323    1.6542 C   0  0  0  0  0  0  0  0  0  0  0  0
   46.0514  -46.6102    0.3918 C   0  0  0  0  0  0  0  0  0  0  0  0
   45.2211  -46.5286   -0.6911 C   0  0  0  0  0  0  0  0  0  0  0  0
   43.8972  -46.1708   -0.5609 C   0  0  0  0  0  0  0  0  0  0  0  0
   43.4353  -45.8955    0.7108 C   0  0  0  0  0  0  0  0  0  0  0  0
   44.2674  -45.9742    1.8206 C   0  0  0  0  0  0  0  0  0  0  0  0
   43.6453  -44.4688    8.4694 C   0  0  0  0  0  0  0  0  0  0  0  0
   42.4270  -44.6519    9.0918 C   0  0  0  0  0  0  0  0  0  0  0  0
  1  2  1  0  0  0  0
  2  3  2  0  0  0  0
  2  4  2  0  0  0  0
  2  5  1  0  0  0  0
  5  6  2  0  0  0  0
  6  7  1  0  0  0  0
  7  8  2  0  0  0  0
  8  9  1  0  0  0  0
  8 21  1  0  0  0  0
  9 10  2  0  0  0  0
  9 11  1  0  0  0  0
 11 12  1  0  0  0  0
 12 13  1  0  0  0  0
 13 14  1  0  0  0  0
 14 15  1  0  0  0  0
 15 16  2  0  0  0  0
 16 17  1  0  0  0  0
 17 18  2  0  0  0  0
 18 19  1  0  0  0  0
 19 20  2  0  0  0  0
 20 15  1  0  0  0  0
 21 22  2  0  0  0  0
 22  5  1  0  0  0  0
M  END
>  <CHROM.1>
-68.88226015,131.24236200,-176.58475596,-144.76634736,-64.64993737,142.30546847
106.08005229,43.36161379,-45.61256282,5.78549188,2.14633885,0.21519177,1.37078515

>  <Name>
design_12

>  <RI>
0

>  <Rbt.Current_Directory>
/home/ziqiaoxu/icml18-jtnn/VAEdesign

>  <Rbt.Executable>
rbdock ($Id: //depot/dev/client3/rdock/2013.1/src/exe/rbdock.cxx#4 $)

>  <Rbt.Library>
libRbt.so (2013.1, Build901 2013/11/27)

>  <Rbt.Parameter_File>
/export/apps/rDock/src/rDock_2013.1_src//data/scripts/dock.prm

>  <Rbt.Receptor>
/home/ziqiaoxu/icml18-jtnn/VAEdesign/targets/RdRp-SARS-CoV-2/pocket_docking.prm

>  <SCORE>
-19.0427

>  <SCORE.INTER>
-21.1606

>  <SCORE.INTER.CONST>
1

>  <SCORE.INTER.POLAR>
-2.35377

>  <SCORE.INTER.REPUL>
0

>  <SCORE.INTER.ROT>
7

>  <SCORE.INTER.VDW>
-25.5577

>  <SCORE.INTER.norm>
-0.961844

>  <SCORE.INTRA>
2.11786

>  <SCORE.INTRA.DIHEDRAL>
4.13384

>  <SCORE.INTRA.DIHEDRAL.0>
3.20585

>  <SCORE.INTRA.POLAR>
0

>  <SCORE.INTRA.POLAR.0>
0

>  <SCORE.INTRA.REPUL>
0

>  <SCORE.INTRA.REPUL.0>
0

>  <SCORE.INTRA.VDW>
0.0509441

>  <SCORE.INTRA.VDW.0>
-1.31478

>  <SCORE.INTRA.norm>
0.0962665

>  <SCORE.RESTR>
0

>  <SCORE.RESTR.CAVITY>
0

>  <SCORE.RESTR.norm>
0

>  <SCORE.SYSTEM>
0

>  <SCORE.SYSTEM.CONST>
0

>  <SCORE.SYSTEM.DIHEDRAL>
0

>  <SCORE.SYSTEM.norm>
0

>  <SCORE.heavy>
22

>  <SCORE.norm>
-0.865577

$$$$
design_9
 OpenBabel05252019093D

 20 21  0  0  0  0  0  0  0  0999 V2000
   41.7677  -44.2988   10.4407 C   0  0  0  0  0  0  0  0  0  0  0  0
   41.1152  -45.3360    9.6081 C   0  0  0  0  0  0  0  0  0  0  0  0
   41.6090  -45.7657    8.4008 C   0  0  0  0  0  0  0  0  0  0  0  0
   40.9865  -46.7270    7.6492 C   0  0  0  0  0  0  0  0  0  0  0  0
   39.8160  -47.3127    8.0839 C   0  0  0  0  0  0  0  0  0  0  0  0
   38.9633  -48.4936    7.1698 S   0  0  0  0  0  0  0  0  0  0  0  0
   39.9601  -49.3489    6.3918 O   0  0  0  0  0  0  0  0  0  0  0  0
   38.2830  -49.4487    8.1152 O   0  0  0  0  0  0  0  0  0  0  0  0
   37.8713  -47.8614    6.0220 N   0  0  0  0  0  0  0  0  0  0  0  0
   37.4198  -46.5284    5.9739 C   0  0  0  0  0  0  0  0  0  0  0  0
   36.3410  -46.0682    5.2769 C   0  0  0  0  0  0  0  0  0  0  0  0
   36.0131  -44.7349    5.2902 C   0  0  0  0  0  0  0  0  0  0  0  0
   36.7288  -43.7787    5.9898 C   0  0  0  0  0  0  0  0  0  0  0  0
   36.3415  -42.3748    5.9735 C   0  0  0  0  0  0  0  0  0  0  0  0
   35.4302  -41.8950    5.0183 N   0  0  0  0  0  0  0  0  0  0  0  0
   36.8279  -41.5956    6.8196 O   0  0  0  0  0  0  0  0  0  0  0  0
   37.8206  -44.2417    6.6947 C   0  0  0  0  0  0  0  0  0  0  0  0
   38.1576  -45.5682    6.6896 C   0  0  0  0  0  0  0  0  0  0  0  0
   39.3086  -46.8788    9.3128 C   0  0  0  0  0  0  0  0  0  0  0  0
   39.9486  -45.9147   10.0489 C   0  0  0  0  0  0  0  0  0  0  0  0
  1  2  1  0  0  0  0
  2  3  2  0  0  0  0
  3  4  1  0  0  0  0
  4  5  2  0  0  0  0
  5  6  1  0  0  0  0
  5 19  1  0  0  0  0
  6  7  2  0  0  0  0
  6  8  2  0  0  0  0
  6  9  1  0  0  0  0
  9 10  1  0  0  0  0
 10 11  2  0  0  0  0
 11 12  1  0  0  0  0
 12 13  2  0  0  0  0
 13 14  1  0  0  0  0
 13 17  1  0  0  0  0
 14 15  1  0  0  0  0
 14 16  2  0  0  0  0
 17 18  2  0  0  0  0
 18 10  1  0  0  0  0
 19 20  2  0  0  0  0
 20  2  1  0  0  0  0
M  END
>  <CHROM.1>
33.74246678,-14.38026870,-164.18292355,-14.74178772,38.54442202,-45.90244502
7.22670559,-0.67638502,-0.72303686,0.19231997

>  <Name>
design_9

>  <RI>
0

>  <Rbt.Current_Directory>
/home/ziqiaoxu/icml18-jtnn/VAEdesign

>  <Rbt.Executable>
rbdock ($Id: //depot/dev/client3/rdock/2013.1/src/exe/rbdock.cxx#4 $)

>  <Rbt.Library>
libRbt.so (2013.1, Build901 2013/11/27)

>  <Rbt.Parameter_File>
/export/apps/rDock/src/rDock_2013.1_src//data/scripts/dock.prm

>  <Rbt.Receptor>
/home/ziqiaoxu/icml18-jtnn/VAEdesign/targets/RdRp-SARS-CoV-2/pocket_docking.prm

>  <SCORE>
-23.1156

>  <SCORE.INTER>
-20.7673

>  <SCORE.INTER.CONST>
1

>  <SCORE.INTER.POLAR>
-1.35588

>  <SCORE.INTER.REPUL>
0

>  <SCORE.INTER.ROT>
4

>  <SCORE.INTER.VDW>
-25.5573

>  <SCORE.INTER.norm>
-1.03836

>  <SCORE.INTRA>
-2.34831

>  <SCORE.INTRA.DIHEDRAL>
-6.30143

>  <SCORE.INTRA.DIHEDRAL.0>
10.5006

>  <SCORE.INTRA.POLAR>
0

>  <SCORE.INTRA.POLAR.0>
0

>  <SCORE.INTRA.REPUL>
0

>  <SCORE.INTRA.REPUL.0>
0

>  <SCORE.INTRA.VDW>
0.802406

>  <SCORE.INTRA.VDW.0>
-2.30095

>  <SCORE.INTRA.norm>
-0.117416

>  <SCORE.RESTR>
0

>  <SCORE.RESTR.CAVITY>
0

>  <SCORE.RESTR.norm>
0

>  <SCORE.SYSTEM>
0

>  <SCORE.SYSTEM.CONST>
0

>  <SCORE.SYSTEM.DIHEDRAL>
0

>  <SCORE.SYSTEM.norm>
0

>  <SCORE.heavy>
20

>  <SCORE.norm>
-1.15578

$$$$
design_12
 OpenBabel05252019093D

 24 26  0  0  0  0  0  0  0  0999 V2000
   49.1733  -48.2791    0.0153 C   0  0  0  0  0  0  0  0  0  0  0  0
   48.2220  -47.6196    0.9656 C   0  0  0  0  0  0  0  0  0  0  0  0
   48.4508  -47.4961    2.3074 C   0  0  0  0  0  0  0  0  0  0  0  0
   47.5153  -46.8779    3.0780 C   0  0  0  0  0  0  0  0  0  0  0  0
   46.3080  -46.3508    2.5644 C   0  0  0  0  0  0  0  0  0  0  0  0
   45.4092  -45.6532    3.4493 C   0  0  0  0  0  0  0  0  0  0  0  0
   44.5815  -44.8710    2.8959 O   0  0  0  0  0  0  0  0  0  0  0  0
   45.4077  -45.7984    4.8303 N   0  0  0  0  0  0  0  0  0  0  0  0
   44.5089  -45.0710    5.6764 C   0  0  0  0  0  0  0  0  0  0  0  0
   44.7436  -45.3528    7.1287 C   0  0  0  0  0  0  0  0  0  0  0  0
   43.5888  -44.8536    7.9758 C   0  0  0  0  0  0  0  0  0  0  0  0
   42.3911  -45.6672    7.7309 N   0  0  0  0  0  0  0  0  0  0  0  0
   42.0585  -46.3101    6.6352 N   0  0  0  0  0  0  0  0  0  0  0  0
   40.8604  -46.9406    6.8192 C   0  0  0  0  0  0  0  0  0  0  0  0
   40.4741  -46.6613    8.0631 N   0  0  0  0  0  0  0  0  0  0  0  0
   41.4195  -45.8645    8.6503 C   0  0  0  0  0  0  0  0  0  0  0  0
   41.3846  -45.4055    9.8241 O   0  0  0  0  0  0  0  0  0  0  0  0
   39.2437  -47.1482    8.6407 C   0  0  0  0  0  0  0  0  0  0  0  0
   38.6185  -48.2865    7.9300 C   0  0  0  0  0  0  0  0  0  0  0  0
   39.3441  -48.8303    6.7491 C   0  0  0  0  0  0  0  0  0  0  0  0
   40.0259  -47.8005    5.9073 C   0  0  0  0  0  0  0  0  0  0  0  0
   46.0942  -46.4839    1.2226 C   0  0  0  0  0  0  0  0  0  0  0  0
   44.8394  -46.0320    0.5398 C   0  0  0  0  0  0  0  0  0  0  0  0
   47.0604  -47.1229    0.4191 C   0  0  0  0  0  0  0  0  0  0  0  0
  1  2  1  0  0  0  0
  2  3  2  0  0  0  0
  3  4  1  0  0  0  0
  4  5  2  0  0  0  0
  5  6  1  0  0  0  0
  5 22  1  0  0  0  0
  6  7  2  0  0  0  0
  6  8  1  0  0  0  0
  8  9  1  0  0  0  0
  9 10  1  0  0  0  0
 10 11  1  0  0  0  0
 11 12  1  0  0  0  0
 12 13  1  0  0  0  0
 13 14  2  0  0  0  0
 14 15  1  0  0  0  0
 15 16  1  0  0  0  0
 15 18  1  0  0  0  0
 16 17  2  0  0  0  0
 16 12  1  0  0  0  0
 18 19  1  0  0  0  0
 19 20  1  0  0  0  0
 20 21  1  0  0  0  0
 21 14  1  0  0  0  0
 22 23  1  0  0  0  0
 22 24  2  0  0  0  0
 24  2  1  0  0  0  0
M  END
>  <CHROM.1>
159.20141080,-177.38361641,-166.11256542,69.27993527,-28.75644430,43.76989287
-46.51526923,5.05585886,0.66718925,-0.42433203,-2.07499067

>  <Name>
design_12

>  <RI>
0

>  <Rbt.Current_Directory>
/home/ziqiaoxu/icml18-jtnn/VAEdesign

>  <Rbt.Executable>
rbdock ($Id: //depot/dev/client3/rdock/2013.1/src/exe/rbdock.cxx#4 $)

>  <Rbt.Library>
libRbt.so (2013.1, Build901 2013/11/27)

>  <Rbt.Parameter_File>
/export/apps/rDock/src/rDock_2013.1_src//data/scripts/dock.prm

>  <Rbt.Receptor>
/home/ziqiaoxu/icml18-jtnn/VAEdesign/targets/RdRp-SARS-CoV-2/pocket_docking.prm

>  <SCORE>
-16.868

>  <SCORE.INTER>
-18.151

>  <SCORE.INTER.CONST>
1

>  <SCORE.INTER.POLAR>
-0.894427

>  <SCORE.INTER.REPUL>
0.00942471

>  <SCORE.INTER.ROT>
5

>  <SCORE.INTER.VDW>
-25.5571

>  <SCORE.INTER.norm>
-0.756294

>  <SCORE.INTRA>
1.28304

>  <SCORE.INTRA.DIHEDRAL>
-1.9941

>  <SCORE.INTRA.DIHEDRAL.0>
8.02861

>  <SCORE.INTRA.POLAR>
0

>  <SCORE.INTRA.POLAR.0>
0

>  <SCORE.INTRA.REPUL>
0

>  <SCORE.INTRA.REPUL.0>
0

>  <SCORE.INTRA.VDW>
2.28009

>  <SCORE.INTRA.VDW.0>
-0.271839

>  <SCORE.INTRA.norm>
0.05346

>  <SCORE.RESTR>
0

>  <SCORE.RESTR.CAVITY>
0

>  <SCORE.RESTR.norm>
0

>  <SCORE.SYSTEM>
0

>  <SCORE.SYSTEM.CONST>
0

>  <SCORE.SYSTEM.DIHEDRAL>
0

>  <SCORE.SYSTEM.norm>
0

>  <SCORE.heavy>
24

>  <SCORE.norm>
-0.702834

$$$$
design_6
 OpenBabel05252019093D

 26 28  0  0  0  0  0  0  0  0999 V2000
   42.3246  -39.3201    0.9854 C   0  0  0  0  0  0  0  0  0  0  0  0
   41.0477  -38.5528    1.4132 C   0  0  0  0  0  0  0  0  0  0  0  0
   40.7265  -38.8992    2.7432 N   0  0  0  0  0  0  0  0  0  0  0  0
   40.7112  -38.1427    3.9074 C   0  0  0  0  0  0  0  0  0  0  0  0
   41.0209  -36.8919    3.8065 O   0  0  0  0  0  0  0  0  0  0  0  0
   40.3832  -38.7383    5.2176 C   0  0  0  0  0  0  0  0  0  0  0  0
   40.3085  -40.1147    5.3216 C   0  0  0  0  0  0  0  0  0  0  0  0
   40.1422  -40.7149    6.5388 C   0  0  0  0  0  0  0  0  0  0  0  0
   40.0280  -40.0181    7.7660 C   0  0  0  0  0  0  0  0  0  0  0  0
   39.9836  -40.7861    8.9494 N   0  0  0  0  0  0  0  0  0  0  0  0
   40.3958  -42.0951    9.1230 C   0  0  0  0  0  0  0  0  0  0  0  0
   40.9784  -42.6225    8.0682 O   0  0  0  0  0  0  0  0  0  0  0  0
   40.2293  -42.8671   10.2525 N   0  0  0  0  0  0  0  0  0  0  0  0
   40.5400  -44.1478   10.6140 C   0  0  0  0  0  0  0  0  0  0  0  0
   40.5876  -45.2482    9.6645 C   0  0  0  0  0  0  0  0  0  0  0  0
   39.6362  -46.1667    9.3498 C   0  0  0  0  0  0  0  0  0  0  0  0
   39.7486  -47.0330    8.2508 C   0  0  0  0  0  0  0  0  0  0  0  0
   40.8553  -46.9496    7.4737 C   0  0  0  0  0  0  0  0  0  0  0  0
   41.8387  -46.0529    7.7454 C   0  0  0  0  0  0  0  0  0  0  0  0
   43.0453  -46.0014    7.0305 C   0  0  0  0  0  0  0  0  0  0  0  0
   44.0883  -45.1358    7.3759 C   0  0  0  0  0  0  0  0  0  0  0  0
   43.8963  -44.3223    8.4535 C   0  0  0  0  0  0  0  0  0  0  0  0
   42.7378  -44.3687    9.1438 N   0  0  0  0  0  0  0  0  0  0  0  0
   41.7269  -45.2073    8.8073 C   0  0  0  0  0  0  0  0  0  0  0  0
   40.0952  -38.6624    7.6233 C   0  0  0  0  0  0  0  0  0  0  0  0
   40.2694  -38.0361    6.3709 C   0  0  0  0  0  0  0  0  0  0  0  0
  1  2  1  0  0  0  0
  2  3  1  0  0  0  0
  3  4  1  0  0  0  0
  4  5  2  0  0  0  0
  4  6  1  0  0  0  0
  6  7  2  0  0  0  0
  7  8  1  0  0  0  0
  8  9  2  0  0  0  0
  9 10  1  0  0  0  0
  9 25  1  0  0  0  0
 10 11  1  0  0  0  0
 11 12  2  0  0  0  0
 11 13  1  0  0  0  0
 13 14  1  0  0  0  0
 14 15  1  0  0  0  0
 15 16  2  0  0  0  0
 16 17  1  0  0  0  0
 17 18  2  0  0  0  0
 18 19  1  0  0  0  0
 19 20  2  0  0  0  0
 20 21  1  0  0  0  0
 21 22  2  0  0  0  0
 22 23  1  0  0  0  0
 23 24  2  0  0  0  0
 24 15  1  0  0  0  0
 24 19  1  0  0  0  0
 25 26  2  0  0  0  0
 26  6  1  0  0  0  0
M  END
>  <CHROM.1>
114.54292623,10.88595988,19.34902284,-30.94100098,-95.78847230,41.05011652
-42.11522143,6.94847249,-1.68954488,-1.10353631,2.39157614

>  <Name>
design_6

>  <RI>
0

>  <Rbt.Current_Directory>
/home/ziqiaoxu/icml18-jtnn/VAEdesign

>  <Rbt.Executable>
rbdock ($Id: //depot/dev/client3/rdock/2013.1/src/exe/rbdock.cxx#4 $)

>  <Rbt.Library>
libRbt.so (2013.1, Build901 2013/11/27)

>  <Rbt.Parameter_File>
/export/apps/rDock/src/rDock_2013.1_src//data/scripts/dock.prm

>  <Rbt.Receptor>
/home/ziqiaoxu/icml18-jtnn/VAEdesign/targets/RdRp-SARS-CoV-2/pocket_docking.prm

>  <SCORE>
-21.9058

>  <SCORE.INTER>
-22.0412

>  <SCORE.INTER.CONST>
1

>  <SCORE.INTER.POLAR>
-2.02956

>  <SCORE.INTER.REPUL>
0

>  <SCORE.INTER.ROT>
5

>  <SCORE.INTER.VDW>
-25.5407

>  <SCORE.INTER.norm>
-0.847737

>  <SCORE.INTRA>
0.135339

>  <SCORE.INTRA.DIHEDRAL>
1.67924

>  <SCORE.INTRA.DIHEDRAL.0>
3.84176

>  <SCORE.INTRA.POLAR>
0

>  <SCORE.INTRA.POLAR.0>
0

>  <SCORE.INTRA.REPUL>
0

>  <SCORE.INTRA.REPUL.0>
0

>  <SCORE.INTRA.VDW>
-0.704282

>  <SCORE.INTRA.VDW.0>
-0.019605

>  <SCORE.INTRA.norm>
0.00520534

>  <SCORE.RESTR>
0

>  <SCORE.RESTR.CAVITY>
0

>  <SCORE.RESTR.norm>
0

>  <SCORE.SYSTEM>
0

>  <SCORE.SYSTEM.CONST>
0

>  <SCORE.SYSTEM.DIHEDRAL>
0

>  <SCORE.SYSTEM.norm>
0

>  <SCORE.heavy>
26

>  <SCORE.norm>
-0.842532

$$$$
design_14
 OpenBabel05252019093D

 25 27  0  0  0  0  0  0  0  0999 V2000
   40.3768  -45.9319   10.9841 N   0  0  0  0  0  0  0  0  0  0  0  0
   41.0324  -45.6608    9.7580 C   0  0  0  0  0  0  0  0  0  0  0  0
   41.9828  -44.8497    9.7008 O   0  0  0  0  0  0  0  0  0  0  0  0
   40.5385  -46.3760    8.5791 C   0  0  0  0  0  0  0  0  0  0  0  0
   39.5430  -47.3084    8.7819 C   0  0  0  0  0  0  0  0  0  0  0  0
   39.0459  -48.0060    7.7033 C   0  0  0  0  0  0  0  0  0  0  0  0
   39.5531  -47.7649    6.4110 C   0  0  0  0  0  0  0  0  0  0  0  0
   40.5314  -46.8516    6.1962 C   0  0  0  0  0  0  0  0  0  0  0  0
   41.0535  -46.5875    4.9147 N   0  0  0  0  0  0  0  0  0  0  0  0
   42.1613  -45.8615    4.5252 C   0  0  0  0  0  0  0  0  0  0  0  0
   42.9118  -45.2943    5.3582 O   0  0  0  0  0  0  0  0  0  0  0  0
   42.4649  -45.7523    3.1100 N   0  0  0  0  0  0  0  0  0  0  0  0
   43.5984  -45.0065    2.6405 C   0  0  0  0  0  0  0  0  0  0  0  0
   44.1656  -45.6061    1.4198 C   0  0  0  0  0  0  0  0  0  0  0  0
   43.4821  -45.7894    0.2262 C   0  0  0  0  0  0  0  0  0  0  0  0
   44.1139  -46.3984   -0.8562 C   0  0  0  0  0  0  0  0  0  0  0  0
   45.4155  -46.8230   -0.7525 C   0  0  0  0  0  0  0  0  0  0  0  0
   46.0671  -46.6275    0.4466 C   0  0  0  0  0  0  0  0  0  0  0  0
   45.4920  -46.0336    1.5418 C   0  0  0  0  0  0  0  0  0  0  0  0
   46.1650  -45.8401    2.7563 N   0  0  0  0  0  0  0  0  0  0  0  0
   46.2134  -44.7929    3.5882 C   0  0  0  0  0  0  0  0  0  0  0  0
   47.0197  -45.0801    4.6686 C   0  0  0  0  0  0  0  0  0  0  0  0
   47.4626  -46.3342    4.4719 N   0  0  0  0  0  0  0  0  0  0  0  0
   46.9544  -46.7837    3.3365 C   0  0  0  0  0  0  0  0  0  0  0  0
   41.0057  -46.1666    7.3240 C   0  0  0  0  0  0  0  0  0  0  0  0
  1  2  1  0  0  0  0
  2  3  2  0  0  0  0
  2  4  1  0  0  0  0
  4  5  2  0  0  0  0
  5  6  1  0  0  0  0
  6  7  2  0  0  0  0
  7  8  1  0  0  0  0
  8  9  1  0  0  0  0
  8 25  2  0  0  0  0
  9 10  1  0  0  0  0
 10 11  2  0  0  0  0
 10 12  1  0  0  0  0
 12 13  1  0  0  0  0
 13 14  1  0  0  0  0
 14 15  2  0  0  0  0
 15 16  1  0  0  0  0
 16 17  2  0  0  0  0
 17 18  1  0  0  0  0
 18 19  2  0  0  0  0
 19 20  1  0  0  0  0
 19 14  1  0  0  0  0
 20 21  1  0  0  0  0
 21 22  2  0  0  0  0
 22 23  1  0  0  0  0
 23 24  2  0  0  0  0
 24 20  1  0  0  0  0
 25  4  1  0  0  0  0
M  END
>  <CHROM.1>
-4.08089873,-169.04585299,147.20810080,59.54416770,-43.29073068,43.11334514
-46.12155160,4.74666816,-2.18978467,-0.23587842,-1.68785033

>  <Name>
design_14

>  <RI>
0

>  <Rbt.Current_Directory>
/home/ziqiaoxu/icml18-jtnn/VAEdesign

>  <Rbt.Executable>
rbdock ($Id: //depot/dev/client3/rdock/2013.1/src/exe/rbdock.cxx#4 $)

>  <Rbt.Library>
libRbt.so (2013.1, Build901 2013/11/27)

>  <Rbt.Parameter_File>
/export/apps/rDock/src/rDock_2013.1_src//data/scripts/dock.prm

>  <Rbt.Receptor>
/home/ziqiaoxu/icml18-jtnn/VAEdesign/targets/RdRp-SARS-CoV-2/pocket_docking.prm

>  <SCORE>
-24.9074

>  <SCORE.INTER>
-23.8406

>  <SCORE.INTER.CONST>
1

>  <SCORE.INTER.POLAR>
-2.65998

>  <SCORE.INTER.REPUL>
0.0680251

>  <SCORE.INTER.ROT>
5

>  <SCORE.INTER.VDW>
-25.5368

>  <SCORE.INTER.norm>
-0.953624

>  <SCORE.INTRA>
-1.06678

>  <SCORE.INTRA.DIHEDRAL>
-6.05409

>  <SCORE.INTRA.DIHEDRAL.0>
14.5303

>  <SCORE.INTRA.POLAR>
0

>  <SCORE.INTRA.POLAR.0>
0

>  <SCORE.INTRA.REPUL>
0

>  <SCORE.INTRA.REPUL.0>
0

>  <SCORE.INTRA.VDW>
1.96027

>  <SCORE.INTRA.VDW.0>
-1.67178

>  <SCORE.INTRA.norm>
-0.042671

>  <SCORE.RESTR>
0

>  <SCORE.RESTR.CAVITY>
0

>  <SCORE.RESTR.norm>
0

>  <SCORE.SYSTEM>
0

>  <SCORE.SYSTEM.CONST>
0

>  <SCORE.SYSTEM.DIHEDRAL>
0

>  <SCORE.SYSTEM.norm>
0

>  <SCORE.heavy>
25

>  <SCORE.norm>
-0.996295

$$$$
design_0
 OpenBabel05252019093D

 25 28  0  0  0  0  0  0  0  0999 V2000
   47.9290  -43.0187    8.0393 C   0  0  0  0  0  0  0  0  0  0  0  0
   47.1908  -43.7524    6.9816 C   0  0  0  0  0  0  0  0  0  0  0  0
   45.8969  -44.0184    6.9053 N   0  0  0  0  0  0  0  0  0  0  0  0
   45.6145  -44.7834    5.8432 C   0  0  0  0  0  0  0  0  0  0  0  0
   44.2777  -45.3704    5.4794 C   0  0  0  0  0  0  0  0  0  0  0  0
   43.5315  -45.4607    6.6919 O   0  0  0  0  0  0  0  0  0  0  0  0
   42.2875  -46.0603    6.6953 C   0  0  0  0  0  0  0  0  0  0  0  0
   41.9013  -46.6011    5.6648 O   0  0  0  0  0  0  0  0  0  0  0  0
   41.5084  -46.0125    7.9435 C   0  0  0  0  0  0  0  0  0  0  0  0
   41.6509  -45.0624    9.3370 S   0  0  0  0  0  0  0  0  0  0  0  0
   40.2898  -45.6171   10.2023 C   0  0  0  0  0  0  0  0  0  0  0  0
   39.7423  -46.5618    9.3620 C   0  0  0  0  0  0  0  0  0  0  0  0
   40.3388  -46.7827    8.2101 C   0  0  0  0  0  0  0  0  0  0  0  0
   40.0774  -47.8650    7.1966 C   0  0  0  0  0  0  0  0  0  0  0  0
   38.9329  -48.1657    6.3683 C   0  0  0  0  0  0  0  0  0  0  0  0
   38.7653  -48.6750    7.7234 C   0  0  0  0  0  0  0  0  0  0  0  0
   46.7791  -45.0056    5.2162 N   0  0  0  0  0  0  0  0  0  0  0  0
   46.8999  -45.8470    4.0875 C   0  0  0  0  0  0  0  0  0  0  0  0
   45.9240  -46.1431    3.2021 C   0  0  0  0  0  0  0  0  0  0  0  0
   46.1662  -47.0193    2.1573 C   0  0  0  0  0  0  0  0  0  0  0  0
   47.4330  -47.6001    2.0161 C   0  0  0  0  0  0  0  0  0  0  0  0
   47.7302  -48.4791    0.9996 F   0  0  0  0  0  0  0  0  0  0  0  0
   48.4134  -47.2936    2.9201 C   0  0  0  0  0  0  0  0  0  0  0  0
   48.1630  -46.4327    3.9414 C   0  0  0  0  0  0  0  0  0  0  0  0
   47.7315  -44.3884    5.8910 N   0  0  0  0  0  0  0  0  0  0  0  0
  1  2  1  0  0  0  0
  2  3  1  0  0  0  0
  3  4  2  0  0  0  0
  4  5  1  0  0  0  0
  4 17  1  0  0  0  0
  5  6  1  0  0  0  0
  6  7  1  0  0  0  0
  7  8  2  0  0  0  0
  7  9  1  0  0  0  0
  9 10  1  0  0  0  0
 10 11  1  0  0  0  0
 11 12  2  0  0  0  0
 12 13  1  0  0  0  0
 13 14  1  0  0  0  0
 13  9  2  0  0  0  0
 14 15  1  0  0  0  0
 15 16  1  0  0  0  0
 16 14  1  0  0  0  0
 17 18  1  0  0  0  0
 17 25  1  0  0  0  0
 18 19  2  0  0  0  0
 19 20  1  0  0  0  0
 20 21  2  0  0  0  0
 21 22  1  0  0  0  0
 21 23  1  0  0  0  0
 23 24  2  0  0  0  0
 24 18  1  0  0  0  0
 25  2  2  0  0  0  0
M  END
>  <CHROM.1>
-24.15247973,-175.11555552,5.86984243,16.26312806,-124.46951964,25.63447679
44.11225918,-46.05114848,6.08001933,-0.43858878,0.41258537,0.92680339

>  <Name>
design_0

>  <RI>
0

>  <Rbt.Current_Directory>
/home/ziqiaoxu/icml18-jtnn/VAEdesign

>  <Rbt.Executable>
rbdock ($Id: //depot/dev/client3/rdock/2013.1/src/exe/rbdock.cxx#4 $)

>  <Rbt.Library>
libRbt.so (2013.1, Build901 2013/11/27)

>  <Rbt.Parameter_File>
/export/apps/rDock/src/rDock_2013.1_src//data/scripts/dock.prm

>  <Rbt.Receptor>
/home/ziqiaoxu/icml18-jtnn/VAEdesign/targets/RdRp-SARS-CoV-2/pocket_docking.prm

>  <SCORE>
-17.0672

>  <SCORE.INTER>
-13.8409

>  <SCORE.INTER.CONST>
1

>  <SCORE.INTER.POLAR>
0

>  <SCORE.INTER.REPUL>
0.0589799

>  <SCORE.INTER.ROT>
6

>  <SCORE.INTER.VDW>
-25.5358

>  <SCORE.INTER.norm>
-0.553635

>  <SCORE.INTRA>
-3.22628

>  <SCORE.INTRA.DIHEDRAL>
-9.00362

>  <SCORE.INTRA.DIHEDRAL.0>
14.7085

>  <SCORE.INTRA.POLAR>
0

>  <SCORE.INTRA.POLAR.0>
0

>  <SCORE.INTRA.REPUL>
0

>  <SCORE.INTRA.REPUL.0>
0

>  <SCORE.INTRA.VDW>
1.27553

>  <SCORE.INTRA.VDW.0>
0.188355

>  <SCORE.INTRA.norm>
-0.129051

>  <SCORE.RESTR>
0

>  <SCORE.RESTR.CAVITY>
0

>  <SCORE.RESTR.norm>
0

>  <SCORE.SYSTEM>
0

>  <SCORE.SYSTEM.CONST>
0

>  <SCORE.SYSTEM.DIHEDRAL>
0

>  <SCORE.SYSTEM.norm>
0

>  <SCORE.heavy>
25

>  <SCORE.norm>
-0.682686

$$$$
design_10
 OpenBabel05252019093D

 23 25  0  0  0  0  0  0  0  0999 V2000
   45.5467  -43.2152   10.4375 C   0  0  0  0  0  0  0  0  0  0  0  0
   44.4978  -43.9143    9.6343 C   0  0  0  0  0  0  0  0  0  0  0  0
   44.7544  -44.2521    8.3220 C   0  0  0  0  0  0  0  0  0  0  0  0
   43.8175  -44.8967    7.5463 C   0  0  0  0  0  0  0  0  0  0  0  0
   44.0658  -45.2727    6.1292 C   0  0  0  0  0  0  0  0  0  0  0  0
   42.5947  -45.2146    8.0858 C   0  0  0  0  0  0  0  0  0  0  0  0
   42.2851  -44.8941    9.4111 C   0  0  0  0  0  0  0  0  0  0  0  0
   40.7436  -45.2853   10.1218 S   0  0  0  0  0  0  0  0  0  0  0  0
   39.7990  -44.1393    9.7628 O   0  0  0  0  0  0  0  0  0  0  0  0
   40.8513  -45.3412   11.6351 O   0  0  0  0  0  0  0  0  0  0  0  0
   40.0543  -46.7358    9.6040 N   0  0  0  0  0  0  0  0  0  0  0  0
   39.2670  -46.9695    8.4415 C   0  0  0  0  0  0  0  0  0  0  0  0
   39.1081  -48.1974    7.8500 C   0  0  0  0  0  0  0  0  0  0  0  0
   38.3428  -48.3874    6.6922 C   0  0  0  0  0  0  0  0  0  0  0  0
   37.7333  -47.2966    6.1362 C   0  0  0  0  0  0  0  0  0  0  0  0
   37.8527  -46.0150    6.6858 C   0  0  0  0  0  0  0  0  0  0  0  0
   37.1941  -44.8725    6.0745 C   0  0  0  0  0  0  0  0  0  0  0  0
   36.0803  -44.9271    5.2733 C   0  0  0  0  0  0  0  0  0  0  0  0
   35.7536  -43.6562    4.8875 N   0  0  0  0  0  0  0  0  0  0  0  0
   36.6488  -42.8340    5.4402 N   0  0  0  0  0  0  0  0  0  0  0  0
   37.5361  -43.5458    6.1670 C   0  0  0  0  0  0  0  0  0  0  0  0
   38.6166  -45.8912    7.8224 C   0  0  0  0  0  0  0  0  0  0  0  0
   43.2695  -44.2476   10.1348 C   0  0  0  0  0  0  0  0  0  0  0  0
  1  2  1  0  0  0  0
  2  3  2  0  0  0  0
  3  4  1  0  0  0  0
  4  5  1  0  0  0  0
  4  6  2  0  0  0  0
  6  7  1  0  0  0  0
  7  8  1  0  0  0  0
  7 23  2  0  0  0  0
  8  9  2  0  0  0  0
  8 10  2  0  0  0  0
  8 11  1  0  0  0  0
 11 12  1  0  0  0  0
 12 13  2  0  0  0  0
 13 14  1  0  0  0  0
 14 15  2  0  0  0  0
 15 16  1  0  0  0  0
 16 17  1  0  0  0  0
 16 22  2  0  0  0  0
 17 18  1  0  0  0  0
 18 19  2  0  0  0  0
 19 20  1  0  0  0  0
 20 21  1  0  0  0  0
 21 17  2  0  0  0  0
 22 12  1  0  0  0  0
 23  2  1  0  0  0  0
M  END
>  <CHROM.1>
-85.47904446,-84.17235015,157.63667523,24.33472575,40.31573823,-45.18949925
8.09511068,-0.28031665,-0.40688983,-0.82162303

>  <Name>
design_10

>  <RI>
0

>  <Rbt.Current_Directory>
/home/ziqiaoxu/icml18-jtnn/VAEdesign

>  <Rbt.Executable>
rbdock ($Id: //depot/dev/client3/rdock/2013.1/src/exe/rbdock.cxx#4 $)

>  <Rbt.Library>
libRbt.so (2013.1, Build901 2013/11/27)

>  <Rbt.Parameter_File>
/export/apps/rDock/src/rDock_2013.1_src//data/scripts/dock.prm

>  <Rbt.Receptor>
/home/ziqiaoxu/icml18-jtnn/VAEdesign/targets/RdRp-SARS-CoV-2/pocket_docking.prm

>  <SCORE>
-24.106

>  <SCORE.INTER>
-20.7603

>  <SCORE.INTER.CONST>
1

>  <SCORE.INTER.POLAR>
-1.53948

>  <SCORE.INTER.REPUL>
0.12165

>  <SCORE.INTER.ROT>
4

>  <SCORE.INTER.VDW>
-25.5343

>  <SCORE.INTER.norm>
-0.90262

>  <SCORE.INTRA>
-3.34572

>  <SCORE.INTRA.DIHEDRAL>
-7.55024

>  <SCORE.INTRA.DIHEDRAL.0>
13.8912

>  <SCORE.INTRA.POLAR>
0

>  <SCORE.INTRA.POLAR.0>
0

>  <SCORE.INTRA.REPUL>
0

>  <SCORE.INTRA.REPUL.0>
0

>  <SCORE.INTRA.VDW>
0.429403

>  <SCORE.INTRA.VDW.0>
-2.21972

>  <SCORE.INTRA.norm>
-0.145466

>  <SCORE.RESTR>
0

>  <SCORE.RESTR.CAVITY>
0

>  <SCORE.RESTR.norm>
0

>  <SCORE.SYSTEM>
0

>  <SCORE.SYSTEM.CONST>
0

>  <SCORE.SYSTEM.DIHEDRAL>
0

>  <SCORE.SYSTEM.norm>
0

>  <SCORE.heavy>
23

>  <SCORE.norm>
-1.04809

$$$$
design_0
 OpenBabel05252019093D

 26 28  0  0  0  0  0  0  0  0999 V2000
   40.1513  -38.8730    1.4554 N   0  0  0  0  0  0  0  0  0  0  0  0
   40.1359  -37.7358    2.3300 C   0  0  0  0  0  0  0  0  0  0  0  0
   39.2343  -36.8832    2.2579 O   0  0  0  0  0  0  0  0  0  0  0  0
   41.2126  -37.5734    3.3370 C   0  0  0  0  0  0  0  0  0  0  0  0
   40.7707  -38.1024    4.6407 C   0  0  0  0  0  0  0  0  0  0  0  0
   39.8361  -37.4451    5.3904 C   0  0  0  0  0  0  0  0  0  0  0  0
   39.4663  -37.9974    6.6055 C   0  0  0  0  0  0  0  0  0  0  0  0
   39.9903  -39.1562    7.0798 C   0  0  0  0  0  0  0  0  0  0  0  0
   39.6792  -39.7591    8.3167 N   0  0  0  0  0  0  0  0  0  0  0  0
   39.7790  -41.1283    8.5610 C   0  0  0  0  0  0  0  0  0  0  0  0
   40.1379  -41.9390    7.6975 O   0  0  0  0  0  0  0  0  0  0  0  0
   39.4590  -41.6528    9.8596 N   0  0  0  0  0  0  0  0  0  0  0  0
   39.5451  -43.0466   10.1458 C   0  0  0  0  0  0  0  0  0  0  0  0
   40.8672  -43.5463   10.6063 C   0  0  0  0  0  0  0  0  0  0  0  0
   40.8486  -45.0441   10.7653 C   0  0  0  0  0  0  0  0  0  0  0  0
   40.6672  -45.7457    9.4791 C   0  0  0  0  0  0  0  0  0  0  0  0
   41.1993  -45.3786    8.3011 N   0  0  0  0  0  0  0  0  0  0  0  0
   40.8125  -46.2584    7.3628 C   0  0  0  0  0  0  0  0  0  0  0  0
   41.0756  -46.3413    6.0064 C   0  0  0  0  0  0  0  0  0  0  0  0
   40.5700  -47.3437    5.2118 C   0  0  0  0  0  0  0  0  0  0  0  0
   39.7663  -48.3036    5.8031 C   0  0  0  0  0  0  0  0  0  0  0  0
   39.4958  -48.2319    7.1586 C   0  0  0  0  0  0  0  0  0  0  0  0
   40.0128  -47.2144    7.9493 C   0  0  0  0  0  0  0  0  0  0  0  0
   39.9440  -46.8721    9.2427 N   0  0  0  0  0  0  0  0  0  0  0  0
   40.9415  -39.8096    6.2983 C   0  0  0  0  0  0  0  0  0  0  0  0
   41.3281  -39.2928    5.0958 C   0  0  0  0  0  0  0  0  0  0  0  0
  1  2  1  0  0  0  0
  2  3  2  0  0  0  0
  2  4  1  0  0  0  0
  4  5  1  0  0  0  0
  5  6  2  0  0  0  0
  6  7  1  0  0  0  0
  7  8  2  0  0  0  0
  8  9  1  0  0  0  0
  8 25  1  0  0  0  0
  9 10  1  0  0  0  0
 10 11  2  0  0  0  0
 10 12  1  0  0  0  0
 12 13  1  0  0  0  0
 13 14  1  0  0  0  0
 14 15  1  0  0  0  0
 15 16  1  0  0  0  0
 16 17  2  0  0  0  0
 17 18  1  0  0  0  0
 18 19  2  0  0  0  0
 19 20  1  0  0  0  0
 20 21  2  0  0  0  0
 21 22  1  0  0  0  0
 22 23  2  0  0  0  0
 23 24  1  0  0  0  0
 23 18  1  0  0  0  0
 24 16  1  0  0  0  0
 25 26  2  0  0  0  0
 26  5  1  0  0  0  0
M  END
>  <CHROM.1>
-96.22006997,-71.95316580,153.20058954,87.83378209,-175.44836370,65.69370999
37.72359696,40.24827801,-42.27298701,6.80070325,-1.89795318,-1.52432904,2.34623971

>  <Name>
design_0

>  <RI>
0

>  <Rbt.Current_Directory>
/home/ziqiaoxu/icml18-jtnn/VAEdesign

>  <Rbt.Executable>
rbdock ($Id: //depot/dev/client3/rdock/2013.1/src/exe/rbdock.cxx#4 $)

>  <Rbt.Library>
libRbt.so (2013.1, Build901 2013/11/27)

>  <Rbt.Parameter_File>
/export/apps/rDock/src/rDock_2013.1_src//data/scripts/dock.prm

>  <Rbt.Receptor>
/home/ziqiaoxu/icml18-jtnn/VAEdesign/targets/RdRp-SARS-CoV-2/pocket_docking.prm

>  <SCORE>
-26.0007

>  <SCORE.INTER>
-26.3462

>  <SCORE.INTER.CONST>
1

>  <SCORE.INTER.POLAR>
-4.02825

>  <SCORE.INTER.REPUL>
0.0967254

>  <SCORE.INTER.ROT>
7

>  <SCORE.INTER.VDW>
-25.5337

>  <SCORE.INTER.norm>
-1.01331

>  <SCORE.INTRA>
0.337883

>  <SCORE.INTRA.DIHEDRAL>
1.10985

>  <SCORE.INTRA.DIHEDRAL.0>
6.42999

>  <SCORE.INTRA.POLAR>
0

>  <SCORE.INTRA.POLAR.0>
0

>  <SCORE.INTRA.REPUL>
0.0442965

>  <SCORE.INTRA.REPUL.0>
0

>  <SCORE.INTRA.VDW>
-0.438525

>  <SCORE.INTRA.VDW.0>
-0.580301

>  <SCORE.INTRA.norm>
0.0129955

>  <SCORE.RESTR>
0.00760747

>  <SCORE.RESTR.CAVITY>
0.00760747

>  <SCORE.RESTR.norm>
0.000292595

>  <SCORE.SYSTEM>
0

>  <SCORE.SYSTEM.CONST>
0

>  <SCORE.SYSTEM.DIHEDRAL>
0

>  <SCORE.SYSTEM.norm>
0

>  <SCORE.heavy>
26

>  <SCORE.norm>
-1.00003

$$$$
design_4
 OpenBabel05252019093D

 23 24  0  0  0  0  0  0  0  0999 V2000
   41.2278  -44.4671   10.8974 C   0  0  0  0  0  0  0  0  0  0  0  0
   41.0225  -45.3104    9.6750 C   0  0  0  0  0  0  0  0  0  0  0  0
   39.8341  -45.9701    9.4480 C   0  0  0  0  0  0  0  0  0  0  0  0
   39.6452  -46.7508    8.3156 C   0  0  0  0  0  0  0  0  0  0  0  0
   40.6352  -46.9024    7.3666 C   0  0  0  0  0  0  0  0  0  0  0  0
   40.4368  -47.7293    6.1660 C   0  0  1  0  0  0  0  0  0  0  0  0
   39.2695  -48.6983    6.4017 C   0  0  0  0  0  0  0  0  0  0  0  0
   40.2083  -46.9805    4.9729 N   0  0  0  0  0  0  0  0  0  0  0  0
   39.3436  -45.8922    4.8405 C   0  0  0  0  0  0  0  0  0  0  0  0
   38.6871  -45.5015    5.8332 O   0  0  0  0  0  0  0  0  0  0  0  0
   39.1624  -45.1646    3.5588 C   0  0  0  0  0  0  0  0  0  0  0  0
   40.3359  -44.2778    3.2494 C   0  0  0  0  0  0  0  0  0  0  0  0
   41.3475  -44.8574    2.4351 N   0  0  0  0  0  0  0  0  0  0  0  0
   42.2726  -44.1018    1.6832 C   0  0  0  0  0  0  0  0  0  0  0  0
   42.1900  -42.8547    1.7483 O   0  0  0  0  0  0  0  0  0  0  0  0
   43.3101  -44.7695    0.8432 C   0  0  0  0  0  0  0  0  0  0  0  0
   44.3989  -44.1087    0.3977 C   0  0  0  0  0  0  0  0  0  0  0  0
   45.2855  -44.8129   -0.3666 C   0  0  0  0  0  0  0  0  0  0  0  0
   44.5912  -46.3620   -0.4469 S   0  0  0  0  0  0  0  0  0  0  0  0
   43.1945  -46.0873    0.4872 C   0  0  0  0  0  0  0  0  0  0  0  0
   41.8240  -46.2415    7.5950 C   0  0  0  0  0  0  0  0  0  0  0  0
   42.0167  -45.4572    8.7310 C   0  0  0  0  0  0  0  0  0  0  0  0
   43.1878  -44.8171    8.9382 F   0  0  0  0  0  0  0  0  0  0  0  0
  1  2  1  0  0  0  0
  2  3  2  0  0  0  0
  3  4  1  0  0  0  0
  4  5  2  0  0  0  0
  5  6  1  0  0  0  0
  5 21  1  0  0  0  0
  6  7  1  1  0  0  0
  6  8  1  0  0  0  0
  8  9  1  0  0  0  0
  9 10  2  0  0  0  0
  9 11  1  0  0  0  0
 11 12  1  0  0  0  0
 12 13  1  0  0  0  0
 13 14  1  0  0  0  0
 14 15  2  0  0  0  0
 14 16  1  0  0  0  0
 16 17  1  0  0  0  0
 17 18  2  0  0  0  0
 18 19  1  0  0  0  0
 19 20  1  0  0  0  0
 20 16  2  0  0  0  0
 21 22  2  0  0  0  0
 22 23  1  0  0  0  0
 22  2  1  0  0  0  0
M  END
>  <CHROM.1>
-19.41513934,-45.52903716,-74.84044040,93.22099694,158.30320019,-162.69330057
41.61433266,-45.59537900,4.65858503,-1.96111013,-0.43381500,-1.64266308

>  <Name>
design_4

>  <RI>
0

>  <Rbt.Current_Directory>
/home/ziqiaoxu/icml18-jtnn/VAEdesign

>  <Rbt.Executable>
rbdock ($Id: //depot/dev/client3/rdock/2013.1/src/exe/rbdock.cxx#4 $)

>  <Rbt.Library>
libRbt.so (2013.1, Build901 2013/11/27)

>  <Rbt.Parameter_File>
/export/apps/rDock/src/rDock_2013.1_src//data/scripts/dock.prm

>  <Rbt.Receptor>
/home/ziqiaoxu/icml18-jtnn/VAEdesign/targets/RdRp-SARS-CoV-2/pocket_docking.prm

>  <SCORE>
-15.5516

>  <SCORE.INTER>
-18.4616

>  <SCORE.INTER.CONST>
1

>  <SCORE.INTER.POLAR>
-1.28179

>  <SCORE.INTER.REPUL>
0.00548389

>  <SCORE.INTER.ROT>
6

>  <SCORE.INTER.VDW>
-25.5309

>  <SCORE.INTER.norm>
-0.802679

>  <SCORE.INTRA>
2.91002

>  <SCORE.INTRA.DIHEDRAL>
4.06303

>  <SCORE.INTRA.DIHEDRAL.0>
4.62488

>  <SCORE.INTRA.POLAR>
0

>  <SCORE.INTRA.POLAR.0>
0

>  <SCORE.INTRA.REPUL>
0.00466157

>  <SCORE.INTRA.REPUL.0>
0

>  <SCORE.INTRA.VDW>
0.8552

>  <SCORE.INTRA.VDW.0>
0.159349

>  <SCORE.INTRA.norm>
0.126523

>  <SCORE.RESTR>
0

>  <SCORE.RESTR.CAVITY>
0

>  <SCORE.RESTR.norm>
0

>  <SCORE.SYSTEM>
0

>  <SCORE.SYSTEM.CONST>
0

>  <SCORE.SYSTEM.DIHEDRAL>
0

>  <SCORE.SYSTEM.norm>
0

>  <SCORE.heavy>
23

>  <SCORE.norm>
-0.676157

$$$$
design_16
 OpenBabel05252019093D

 24 25  0  0  0  0  0  0  0  0999 V2000
   47.6659  -47.7598    0.0140 C   0  0  0  0  0  0  0  0  0  0  0  0
   47.6592  -47.4202    1.4488 C   0  0  0  0  0  0  0  0  0  0  0  0
   48.6840  -47.7046    2.3059 C   0  0  0  0  0  0  0  0  0  0  0  0
   48.6421  -47.3748    3.6276 C   0  0  0  0  0  0  0  0  0  0  0  0
   47.5338  -46.7369    4.1093 C   0  0  0  0  0  0  0  0  0  0  0  0
   46.4482  -46.4137    3.2948 C   0  0  0  0  0  0  0  0  0  0  0  0
   45.2873  -45.7329    3.8387 C   0  0  0  0  0  0  0  0  0  0  0  0
   44.4731  -45.2110    3.0077 O   0  0  0  0  0  0  0  0  0  0  0  0
   45.0622  -45.6471    5.2225 N   0  0  0  0  0  0  0  0  0  0  0  0
   43.9225  -44.9926    5.7565 C   0  0  0  0  0  0  0  0  0  0  0  0
   42.6837  -45.8281    5.9130 C   0  0  0  0  0  0  0  0  0  0  0  0
   42.3353  -46.3467    4.7951 O   0  0  0  0  0  0  0  0  0  0  0  0
   41.9964  -46.0148    7.1125 N   0  0  0  0  0  0  0  0  0  0  0  0
   40.8396  -46.8019    7.2866 C   0  0  0  0  0  0  0  0  0  0  0  0
   40.3624  -47.7093    6.3703 C   0  0  0  0  0  0  0  0  0  0  0  0
   39.2079  -48.4405    6.6546 C   0  0  0  0  0  0  0  0  0  0  0  0
   38.5417  -48.2633    7.8428 C   0  0  0  0  0  0  0  0  0  0  0  0
   39.0216  -47.3547    8.7581 C   0  0  0  0  0  0  0  0  0  0  0  0
   40.1595  -46.6163    8.5079 C   0  0  0  0  0  0  0  0  0  0  0  0
   40.7316  -45.4808    9.6877 S   0  0  0  0  0  0  0  0  0  0  0  0
   39.8006  -43.9455    9.4914 C   0  0  0  0  0  0  0  0  0  0  0  0
   40.4538  -45.9301   11.1100 O   0  0  0  0  0  0  0  0  0  0  0  0
   42.1565  -45.1078    9.5568 O   0  0  0  0  0  0  0  0  0  0  0  0
   46.5428  -46.7696    1.9683 C   0  0  0  0  0  0  0  0  0  0  0  0
  1  2  1  0  0  0  0
  2  3  2  0  0  0  0
  3  4  1  0  0  0  0
  4  5  2  0  0  0  0
  5  6  1  0  0  0  0
  6  7  1  0  0  0  0
  6 24  2  0  0  0  0
  7  8  2  0  0  0  0
  7  9  1  0  0  0  0
  9 10  1  0  0  0  0
 10 11  1  0  0  0  0
 11 12  2  0  0  0  0
 11 13  1  0  0  0  0
 13 14  1  0  0  0  0
 14 15  2  0  0  0  0
 15 16  1  0  0  0  0
 16 17  2  0  0  0  0
 17 18  1  0  0  0  0
 18 19  2  0  0  0  0
 19 20  1  0  0  0  0
 19 14  1  0  0  0  0
 20 21  1  0  0  0  0
 20 22  2  0  0  0  0
 20 23  2  0  0  0  0
 24  2  1  0  0  0  0
M  END
>  <CHROM.1>
165.02095519,87.43467840,-56.90498153,13.41634535,97.41743897,43.16740897
-46.38035593,6.01142404,0.67231597,-0.37723373,-2.11639925

>  <Name>
design_16

>  <RI>
0

>  <Rbt.Current_Directory>
/home/ziqiaoxu/icml18-jtnn/VAEdesign

>  <Rbt.Executable>
rbdock ($Id: //depot/dev/client3/rdock/2013.1/src/exe/rbdock.cxx#4 $)

>  <Rbt.Library>
libRbt.so (2013.1, Build901 2013/11/27)

>  <Rbt.Parameter_File>
/export/apps/rDock/src/rDock_2013.1_src//data/scripts/dock.prm

>  <Rbt.Receptor>
/home/ziqiaoxu/icml18-jtnn/VAEdesign/targets/RdRp-SARS-CoV-2/pocket_docking.prm

>  <SCORE>
-18.7298

>  <SCORE.INTER>
-18.1717

>  <SCORE.INTER.CONST>
1

>  <SCORE.INTER.POLAR>
-0.894427

>  <SCORE.INTER.REPUL>
0

>  <SCORE.INTER.ROT>
5

>  <SCORE.INTER.VDW>
-25.5306

>  <SCORE.INTER.norm>
-0.757153

>  <SCORE.INTRA>
-0.558101

>  <SCORE.INTRA.DIHEDRAL>
1.25611

>  <SCORE.INTRA.DIHEDRAL.0>
3.93425

>  <SCORE.INTRA.POLAR>
-0.434682

>  <SCORE.INTRA.POLAR.0>
0

>  <SCORE.INTRA.REPUL>
0

>  <SCORE.INTRA.REPUL.0>
0

>  <SCORE.INTRA.VDW>
0.291766

>  <SCORE.INTRA.VDW.0>
-1.9898

>  <SCORE.INTRA.norm>
-0.0232542

>  <SCORE.RESTR>
0

>  <SCORE.RESTR.CAVITY>
0

>  <SCORE.RESTR.norm>
0

>  <SCORE.SYSTEM>
0

>  <SCORE.SYSTEM.CONST>
0

>  <SCORE.SYSTEM.DIHEDRAL>
0

>  <SCORE.SYSTEM.norm>
0

>  <SCORE.heavy>
24

>  <SCORE.norm>
-0.780407

$$$$
design_10
 OpenBabel05252019093D

 23 24  0  0  0  0  0  0  0  0999 V2000
   47.9290  -48.0816    0.6988 C   0  0  0  0  0  0  0  0  0  0  0  0
   47.4574  -47.2686    1.8624 C   0  0  0  0  0  0  0  0  0  0  0  0
   48.2124  -47.1225    3.0055 C   0  0  0  0  0  0  0  0  0  0  0  0
   47.7256  -46.3587    4.0498 C   0  0  0  0  0  0  0  0  0  0  0  0
   46.4982  -45.7293    3.9917 C   0  0  0  0  0  0  0  0  0  0  0  0
   46.0125  -44.7973    5.3864 S   0  0  0  0  0  0  0  0  0  0  0  0
   45.3521  -43.5418    4.9266 O   0  0  0  0  0  0  0  0  0  0  0  0
   47.2330  -44.5037    6.2039 O   0  0  0  0  0  0  0  0  0  0  0  0
   44.9242  -45.6941    6.3799 N   0  0  0  0  0  0  0  0  0  0  0  0
   44.5743  -44.8452    7.5031 C   0  0  0  0  0  0  0  0  0  0  0  0
   43.2112  -45.1703    8.0080 C   0  0  0  0  0  0  0  0  0  0  0  0
   42.4223  -46.0323    7.2821 C   0  0  0  0  0  0  0  0  0  0  0  0
   41.1545  -46.3233    7.7693 C   0  0  0  0  0  0  0  0  0  0  0  0
   40.6847  -45.7775    8.9375 C   0  0  0  0  0  0  0  0  0  0  0  0
   39.3841  -46.0961    9.4043 N   0  0  0  0  0  0  0  0  0  0  0  0
   38.2586  -46.9658    8.4603 S   0  0  0  0  0  0  0  0  0  0  0  0
   37.9102  -46.0966    6.9273 C   0  0  0  0  0  0  0  0  0  0  0  0
   38.8914  -48.2981    8.0887 O   0  0  0  0  0  0  0  0  0  0  0  0
   36.9979  -47.2960    9.1990 O   0  0  0  0  0  0  0  0  0  0  0  0
   41.5070  -44.9056    9.6535 C   0  0  0  0  0  0  0  0  0  0  0  0
   42.7660  -44.6163    9.1703 C   0  0  0  0  0  0  0  0  0  0  0  0
   45.7454  -45.8690    2.8646 C   0  0  0  0  0  0  0  0  0  0  0  0
   46.2287  -46.6348    1.8119 C   0  0  0  0  0  0  0  0  0  0  0  0
  1  2  1  0  0  0  0
  2  3  2  0  0  0  0
  3  4  1  0  0  0  0
  4  5  2  0  0  0  0
  5  6  1  0  0  0  0
  5 22  1  0  0  0  0
  6  7  2  0  0  0  0
  6  8  2  0  0  0  0
  6  9  1  0  0  0  0
  9 10  1  0  0  0  0
 10 11  1  0  0  0  0
 11 12  2  0  0  0  0
 12 13  1  0  0  0  0
 13 14  2  0  0  0  0
 14 15  1  0  0  0  0
 14 20  1  0  0  0  0
 15 16  1  0  0  0  0
 16 17  1  0  0  0  0
 16 18  2  0  0  0  0
 16 19  2  0  0  0  0
 20 21  2  0  0  0  0
 21 11  1  0  0  0  0
 22 23  2  0  0  0  0
 23  2  1  0  0  0  0
M  END
>  <CHROM.1>
139.71890288,-179.82453852,151.02478020,-9.01254200,-9.20031783,-59.41421545
43.29934597,-45.99462445,6.27604950,0.44230570,-0.39231865,-2.17073605

>  <Name>
design_10

>  <RI>
0

>  <Rbt.Current_Directory>
/home/ziqiaoxu/icml18-jtnn/VAEdesign

>  <Rbt.Executable>
rbdock ($Id: //depot/dev/client3/rdock/2013.1/src/exe/rbdock.cxx#4 $)

>  <Rbt.Library>
libRbt.so (2013.1, Build901 2013/11/27)

>  <Rbt.Parameter_File>
/export/apps/rDock/src/rDock_2013.1_src//data/scripts/dock.prm

>  <Rbt.Receptor>
/home/ziqiaoxu/icml18-jtnn/VAEdesign/targets/RdRp-SARS-CoV-2/pocket_docking.prm

>  <SCORE>
-22.3375

>  <SCORE.INTER>
-20.5805

>  <SCORE.INTER.CONST>
1

>  <SCORE.INTER.POLAR>
-1.91423

>  <SCORE.INTER.REPUL>
0.0115927

>  <SCORE.INTER.ROT>
6

>  <SCORE.INTER.VDW>
-25.5301

>  <SCORE.INTER.norm>
-0.894803

>  <SCORE.INTRA>
-1.85766

>  <SCORE.INTRA.DIHEDRAL>
-4.95314

>  <SCORE.INTRA.DIHEDRAL.0>
9.64455

>  <SCORE.INTRA.POLAR>
0

>  <SCORE.INTRA.POLAR.0>
0

>  <SCORE.INTRA.REPUL>
0

>  <SCORE.INTRA.REPUL.0>
0

>  <SCORE.INTRA.VDW>
0.618913

>  <SCORE.INTRA.VDW.0>
-1.94285

>  <SCORE.INTRA.norm>
-0.0807677

>  <SCORE.RESTR>
0.100666

>  <SCORE.RESTR.CAVITY>
0.100666

>  <SCORE.RESTR.norm>
0.00437678

>  <SCORE.SYSTEM>
0

>  <SCORE.SYSTEM.CONST>
0

>  <SCORE.SYSTEM.DIHEDRAL>
0

>  <SCORE.SYSTEM.norm>
0

>  <SCORE.heavy>
23

>  <SCORE.norm>
-0.971194

$$$$
design_14
 OpenBabel05252019093D

 24 26  0  0  0  0  0  0  0  0999 V2000
   49.0377  -47.7997    0.2373 C   0  0  0  0  0  0  0  0  0  0  0  0
   48.2091  -46.6053    0.7311 C   0  0  1  0  0  0  0  0  0  0  0  0
   46.8402  -47.0504    1.1775 C   0  0  0  0  0  0  0  0  0  0  0  0
   46.8088  -47.5924    2.5739 C   0  0  0  0  0  0  0  0  0  0  0  0
   47.4529  -46.7001    3.5878 C   0  0  2  0  0  0  0  0  0  0  0  0
   46.4076  -46.2005    4.4607 N   0  0  0  0  0  0  0  0  0  0  0  0
   45.3874  -45.3257    4.0300 C   0  0  0  0  0  0  0  0  0  0  0  0
   45.3842  -44.9607    2.8272 O   0  0  0  0  0  0  0  0  0  0  0  0
   44.3342  -44.8292    4.9338 C   0  0  0  0  0  0  0  0  0  0  0  0
   44.6345  -45.3965    6.6260 S   0  0  0  0  0  0  0  0  0  0  0  0
   43.0975  -45.6259    7.5051 C   0  0  0  0  0  0  0  0  0  0  0  0
   42.1693  -46.4744    7.0303 N   0  0  0  0  0  0  0  0  0  0  0  0
   40.9942  -46.6921    7.6423 C   0  0  0  0  0  0  0  0  0  0  0  0
   40.0349  -47.5707    7.1494 C   0  0  0  0  0  0  0  0  0  0  0  0
   38.8366  -47.7733    7.8010 C   0  0  0  0  0  0  0  0  0  0  0  0
   38.5434  -47.1084    8.9723 C   0  0  0  0  0  0  0  0  0  0  0  0
   39.4995  -46.2353    9.4601 C   0  0  0  0  0  0  0  0  0  0  0  0
   40.6969  -46.0295    8.8135 C   0  0  0  0  0  0  0  0  0  0  0  0
   41.6666  -45.1594    9.2866 C   0  0  0  0  0  0  0  0  0  0  0  0
   41.3823  -44.5502   10.3720 O   0  0  0  0  0  0  0  0  0  0  0  0
   42.8362  -44.9587    8.6546 N   0  0  0  0  0  0  0  0  0  0  0  0
   43.8176  -44.0288    9.2032 C   0  0  0  0  0  0  0  0  0  0  0  0
   48.1650  -45.5195    3.0060 C   0  0  0  0  0  0  0  0  0  0  0  0
   48.9245  -45.8097    1.7516 C   0  0  0  0  0  0  0  0  0  0  0  0
  2  1  1  1  0  0  0
  2  3  1  0  0  0  0
  3  4  1  0  0  0  0
  4  5  1  0  0  0  0
  5  6  1  1  0  0  0
  5 23  1  0  0  0  0
  6  7  1  0  0  0  0
  7  8  2  0  0  0  0
  7  9  1  0  0  0  0
  9 10  1  0  0  0  0
 10 11  1  0  0  0  0
 11 12  2  0  0  0  0
 12 13  1  0  0  0  0
 13 14  2  0  0  0  0
 14 15  1  0  0  0  0
 15 16  2  0  0  0  0
 16 17  1  0  0  0  0
 17 18  2  0  0  0  0
 18 19  1  0  0  0  0
 18 13  1  0  0  0  0
 19 20  2  0  0  0  0
 19 21  1  0  0  0  0
 21 22  1  0  0  0  0
 21 11  1  0  0  0  0
 23 24  1  0  0  0  0
 24  2  1  0  0  0  0
M  END
>  <CHROM.1>
-66.65697894,4.31074436,-148.84733522,58.13511917,44.09424885,-46.02570481
5.73253236,0.64488046,-0.46131354,-2.17286407

>  <Name>
design_14

>  <RI>
0

>  <Rbt.Current_Directory>
/home/ziqiaoxu/icml18-jtnn/VAEdesign

>  <Rbt.Executable>
rbdock ($Id: //depot/dev/client3/rdock/2013.1/src/exe/rbdock.cxx#4 $)

>  <Rbt.Library>
libRbt.so (2013.1, Build901 2013/11/27)

>  <Rbt.Parameter_File>
/export/apps/rDock/src/rDock_2013.1_src//data/scripts/dock.prm

>  <Rbt.Receptor>
/home/ziqiaoxu/icml18-jtnn/VAEdesign/targets/RdRp-SARS-CoV-2/pocket_docking.prm

>  <SCORE>
-17.4693

>  <SCORE.INTER>
-19.1697

>  <SCORE.INTER.CONST>
1

>  <SCORE.INTER.POLAR>
-0.894292

>  <SCORE.INTER.REPUL>
0

>  <SCORE.INTER.ROT>
4

>  <SCORE.INTER.VDW>
-25.5291

>  <SCORE.INTER.norm>
-0.798739

>  <SCORE.INTRA>
1.70045

>  <SCORE.INTRA.DIHEDRAL>
1.27296

>  <SCORE.INTRA.DIHEDRAL.0>
4.5356

>  <SCORE.INTRA.POLAR>
0

>  <SCORE.INTRA.POLAR.0>
0

>  <SCORE.INTRA.REPUL>
0

>  <SCORE.INTRA.REPUL.0>
0

>  <SCORE.INTRA.VDW>
1.06397

>  <SCORE.INTRA.VDW.0>
-0.714638

>  <SCORE.INTRA.norm>
0.070852

>  <SCORE.RESTR>
0

>  <SCORE.RESTR.CAVITY>
0

>  <SCORE.RESTR.norm>
0

>  <SCORE.SYSTEM>
0

>  <SCORE.SYSTEM.CONST>
0

>  <SCORE.SYSTEM.DIHEDRAL>
0

>  <SCORE.SYSTEM.norm>
0

>  <SCORE.heavy>
24

>  <SCORE.norm>
-0.727887

$$$$
design_16
 OpenBabel05252019093D

 24 26  0  0  0  0  0  0  0  0999 V2000
   38.7128  -49.0312    6.5033 C   0  0  0  0  0  0  0  0  0  0  0  0
   39.2803  -47.9774    7.3836 C   0  0  0  0  0  0  0  0  0  0  0  0
   38.5958  -47.5616    8.5101 C   0  0  0  0  0  0  0  0  0  0  0  0
   39.1724  -46.5858    9.2824 C   0  0  0  0  0  0  0  0  0  0  0  0
   40.3899  -46.0326    8.9572 C   0  0  0  0  0  0  0  0  0  0  0  0
   41.0934  -46.4414    7.8245 C   0  0  0  0  0  0  0  0  0  0  0  0
   42.3905  -45.8261    7.5257 C   0  0  0  0  0  0  0  0  0  0  0  0
   42.8809  -45.8253    6.2558 C   0  0  0  0  0  0  0  0  0  0  0  0
   44.1389  -45.2411    5.9830 C   0  0  0  0  0  0  0  0  0  0  0  0
   44.6519  -45.3623    4.6308 C   0  0  0  0  0  0  0  0  0  0  0  0
   43.9989  -44.9030    3.6856 O   0  0  0  0  0  0  0  0  0  0  0  0
   45.8768  -46.0106    4.3955 N   0  0  0  0  0  0  0  0  0  0  0  0
   46.4370  -46.1817    3.0683 C   0  0  0  0  0  0  0  0  0  0  0  0
   47.4558  -47.2910    3.0540 C   0  0  0  0  0  0  0  0  0  0  0  0
   48.7190  -46.9035    3.7367 C   0  0  0  0  0  0  0  0  0  0  0  0
   47.6723  -47.8311    1.6451 C   0  0  0  0  0  0  0  0  0  0  0  0
   44.8665  -44.6750    6.9791 C   0  0  0  0  0  0  0  0  0  0  0  0
   46.0720  -44.0344    7.0549 C   0  0  0  0  0  0  0  0  0  0  0  0
   46.9959  -43.7334    5.9367 C   0  0  0  0  0  0  0  0  0  0  0  0
   46.2321  -43.6951    8.3633 N   0  0  0  0  0  0  0  0  0  0  0  0
   45.2036  -44.0952    9.0292 O   0  0  0  0  0  0  0  0  0  0  0  0
   44.3183  -44.7026    8.2569 C   0  0  0  0  0  0  0  0  0  0  0  0
   43.1227  -45.2638    8.4963 N   0  0  0  0  0  0  0  0  0  0  0  0
   40.5229  -47.4153    7.0488 C   0  0  0  0  0  0  0  0  0  0  0  0
  1  2  1  0  0  0  0
  2  3  2  0  0  0  0
  3  4  1  0  0  0  0
  4  5  2  0  0  0  0
  5  6  1  0  0  0  0
  6  7  1  0  0  0  0
  6 24  2  0  0  0  0
  7  8  2  0  0  0  0
  8  9  1  0  0  0  0
  9 10  1  0  0  0  0
  9 17  2  0  0  0  0
 10 11  2  0  0  0  0
 10 12  1  0  0  0  0
 12 13  1  0  0  0  0
 13 14  1  0  0  0  0
 14 15  1  0  0  0  0
 14 16  1  0  0  0  0
 17 18  1  0  0  0  0
 18 19  1  0  0  0  0
 18 20  2  0  0  0  0
 20 21  1  0  0  0  0
 21 22  1  0  0  0  0
 22 23  2  0  0  0  0
 22 17  1  0  0  0  0
 23  7  1  0  0  0  0
 24  2  1  0  0  0  0
M  END
>  <CHROM.1>
-156.83438266,59.12022161,-159.99166892,-72.67070362,43.80042758,-45.94278154
6.32932754,2.81102521,0.41957036,0.96414000

>  <Name>
design_16

>  <RI>
0

>  <Rbt.Current_Directory>
/home/ziqiaoxu/icml18-jtnn/VAEdesign

>  <Rbt.Executable>
rbdock ($Id: //depot/dev/client3/rdock/2013.1/src/exe/rbdock.cxx#4 $)

>  <Rbt.Library>
libRbt.so (2013.1, Build901 2013/11/27)

>  <Rbt.Parameter_File>
/export/apps/rDock/src/rDock_2013.1_src//data/scripts/dock.prm

>  <Rbt.Receptor>
/home/ziqiaoxu/icml18-jtnn/VAEdesign/targets/RdRp-SARS-CoV-2/pocket_docking.prm

>  <SCORE>
-19.7793

>  <SCORE.INTER>
-19.0968

>  <SCORE.INTER.CONST>
1

>  <SCORE.INTER.POLAR>
-0.873436

>  <SCORE.INTER.REPUL>
0

>  <SCORE.INTER.ROT>
4

>  <SCORE.INTER.VDW>
-25.5271

>  <SCORE.INTER.norm>
-0.795699

>  <SCORE.INTRA>
-0.682506

>  <SCORE.INTRA.DIHEDRAL>
-0.935487

>  <SCORE.INTRA.DIHEDRAL.0>
12.607

>  <SCORE.INTRA.POLAR>
0

>  <SCORE.INTRA.POLAR.0>
0

>  <SCORE.INTRA.REPUL>
0

>  <SCORE.INTRA.REPUL.0>
0

>  <SCORE.INTRA.VDW>
-0.214762

>  <SCORE.INTRA.VDW.0>
-0.982242

>  <SCORE.INTRA.norm>
-0.0284377

>  <SCORE.RESTR>
0

>  <SCORE.RESTR.CAVITY>
0

>  <SCORE.RESTR.norm>
0

>  <SCORE.SYSTEM>
0

>  <SCORE.SYSTEM.CONST>
0

>  <SCORE.SYSTEM.DIHEDRAL>
0

>  <SCORE.SYSTEM.norm>
0

>  <SCORE.heavy>
24

>  <SCORE.norm>
-0.824137

$$$$
design_19
 OpenBabel05252019093D

 23 24  0  0  0  0  0  0  0  0999 V2000
   41.0394  -44.3878   10.6990 C   0  0  0  0  0  0  0  0  0  0  0  0
   41.6227  -45.1227    9.6647 O   0  0  0  0  0  0  0  0  0  0  0  0
   40.9196  -46.0232    8.9063 C   0  0  0  0  0  0  0  0  0  0  0  0
   39.7459  -46.6107    9.3171 C   0  0  0  0  0  0  0  0  0  0  0  0
   39.0569  -47.5126    8.5369 C   0  0  0  0  0  0  0  0  0  0  0  0
   39.5669  -47.8294    7.3099 C   0  0  0  0  0  0  0  0  0  0  0  0
   38.7492  -48.9801    6.2446 Cl  0  0  0  0  0  0  0  0  0  0  0  0
   40.7621  -47.2438    6.8692 C   0  0  0  0  0  0  0  0  0  0  0  0
   41.4547  -46.3451    7.6410 C   0  0  0  0  0  0  0  0  0  0  0  0
   42.6522  -45.7423    7.2652 N   0  0  0  0  0  0  0  0  0  0  0  0
   43.1793  -45.6880    5.9604 C   0  0  0  0  0  0  0  0  0  0  0  0
   42.6553  -46.1683    4.9452 O   0  0  0  0  0  0  0  0  0  0  0  0
   44.5082  -44.9636    5.8489 C   0  0  0  0  0  0  0  0  0  0  0  0
   45.4001  -45.7499    5.0467 N   0  0  0  0  0  0  0  0  0  0  0  0
   45.4436  -45.6239    3.6609 C   0  0  0  0  0  0  0  0  0  0  0  0
   44.6656  -44.8112    3.0340 O   0  0  0  0  0  0  0  0  0  0  0  0
   46.3570  -46.4013    2.8277 C   0  0  0  0  0  0  0  0  0  0  0  0
   47.4851  -46.9257    3.4842 C   0  0  0  0  0  0  0  0  0  0  0  0
   48.4036  -47.5926    2.7388 C   0  0  0  0  0  0  0  0  0  0  0  0
   48.2299  -47.7466    1.3821 C   0  0  0  0  0  0  0  0  0  0  0  0
   47.1536  -47.2505    0.7404 C   0  0  0  0  0  0  0  0  0  0  0  0
   46.1830  -46.5551    1.4880 C   0  0  0  0  0  0  0  0  0  0  0  0
   44.9939  -46.0930    0.7380 C   0  0  0  0  0  0  0  0  0  0  0  0
  1  2  1  0  0  0  0
  2  3  1  0  0  0  0
  3  4  2  0  0  0  0
  4  5  1  0  0  0  0
  5  6  2  0  0  0  0
  6  7  1  0  0  0  0
  6  8  1  0  0  0  0
  8  9  2  0  0  0  0
  9 10  1  0  0  0  0
  9  3  1  0  0  0  0
 10 11  1  0  0  0  0
 11 12  2  0  0  0  0
 11 13  1  0  0  0  0
 13 14  1  0  0  0  0
 14 15  1  0  0  0  0
 15 16  2  0  0  0  0
 15 17  1  0  0  0  0
 17 18  2  0  0  0  0
 18 19  1  0  0  0  0
 19 20  2  0  0  0  0
 20 21  1  0  0  0  0
 21 22  2  0  0  0  0
 22 23  1  0  0  0  0
 22 17  1  0  0  0  0
M  END
>  <CHROM.1>
-21.48839180,-164.45117897,133.76140510,88.08736467,-21.25852108,43.16647043
-46.52818492,5.49388570,-2.53911974,-0.46687684,-2.12093272

>  <Name>
design_19

>  <RI>
0

>  <Rbt.Current_Directory>
/home/ziqiaoxu/icml18-jtnn/VAEdesign

>  <Rbt.Executable>
rbdock ($Id: //depot/dev/client3/rdock/2013.1/src/exe/rbdock.cxx#4 $)

>  <Rbt.Library>
libRbt.so (2013.1, Build901 2013/11/27)

>  <Rbt.Parameter_File>
/export/apps/rDock/src/rDock_2013.1_src//data/scripts/dock.prm

>  <Rbt.Receptor>
/home/ziqiaoxu/icml18-jtnn/VAEdesign/targets/RdRp-SARS-CoV-2/pocket_docking.prm

>  <SCORE>
-18.3716

>  <SCORE.INTER>
-18.1667

>  <SCORE.INTER.CONST>
1

>  <SCORE.INTER.POLAR>
-0.894427

>  <SCORE.INTER.REPUL>
0

>  <SCORE.INTER.ROT>
5

>  <SCORE.INTER.VDW>
-25.5256

>  <SCORE.INTER.norm>
-0.789855

>  <SCORE.INTRA>
-0.20495

>  <SCORE.INTRA.DIHEDRAL>
-2.13474

>  <SCORE.INTRA.DIHEDRAL.0>
7.64792

>  <SCORE.INTRA.POLAR>
0.0165259

>  <SCORE.INTRA.POLAR.0>
-0.0165259

>  <SCORE.INTRA.REPUL>
0

>  <SCORE.INTRA.REPUL.0>
0

>  <SCORE.INTRA.VDW>
0.80623

>  <SCORE.INTRA.VDW.0>
1.06856

>  <SCORE.INTRA.norm>
-0.00891088

>  <SCORE.RESTR>
0

>  <SCORE.RESTR.CAVITY>
0

>  <SCORE.RESTR.norm>
0

>  <SCORE.SYSTEM>
0

>  <SCORE.SYSTEM.CONST>
0

>  <SCORE.SYSTEM.DIHEDRAL>
0

>  <SCORE.SYSTEM.norm>
0

>  <SCORE.heavy>
23

>  <SCORE.norm>
-0.798766

$$$$
design_8
 OpenBabel05252019093D

 27 30  0  0  0  0  0  0  0  0999 V2000
   47.1658  -41.3117    7.5152 C   0  0  0  0  0  0  0  0  0  0  0  0
   47.6249  -43.0765    7.4923 S   0  0  0  0  0  0  0  0  0  0  0  0
   46.1363  -44.0217    7.3381 C   0  0  0  0  0  0  0  0  0  0  0  0
   45.1261  -43.8741    8.2527 C   0  0  0  0  0  0  0  0  0  0  0  0
   43.9743  -44.6469    8.0786 C   0  0  0  0  0  0  0  0  0  0  0  0
   42.9482  -44.5377    8.9520 C   0  0  0  0  0  0  0  0  0  0  0  0
   43.0517  -43.7332    9.9225 O   0  0  0  0  0  0  0  0  0  0  0  0
   41.7954  -45.2916    8.7987 N   0  0  0  0  0  0  0  0  0  0  0  0
   40.8709  -45.0863    9.8833 C   0  0  0  0  0  0  0  0  0  0  0  0
   39.6901  -44.2926    9.3699 C   0  0  0  0  0  0  0  0  0  0  0  0
   40.0393  -43.1441    8.5986 N   0  0  0  0  0  0  0  0  0  0  0  0
   40.0872  -41.9129    9.2891 C   0  0  0  0  0  0  0  0  0  0  0  0
   38.7005  -41.2681    9.1371 C   0  0  0  0  0  0  0  0  0  0  0  0
   38.6373  -40.8967    7.7971 O   0  0  0  0  0  0  0  0  0  0  0  0
   38.6106  -41.9682    6.9566 C   0  0  0  0  0  0  0  0  0  0  0  0
   39.4088  -43.1488    7.3383 C   0  0  0  0  0  0  0  0  0  0  0  0
   41.6789  -46.1328    7.7946 C   0  0  0  0  0  0  0  0  0  0  0  0
   40.5971  -47.0796    7.5915 C   0  0  0  0  0  0  0  0  0  0  0  0
   40.4640  -47.6107    6.2764 C   0  0  0  0  0  0  0  0  0  0  0  0
   39.4445  -48.4560    5.9444 C   0  0  0  0  0  0  0  0  0  0  0  0
   38.4944  -48.8369    6.8627 C   0  0  0  0  0  0  0  0  0  0  0  0
   38.6212  -48.3256    8.1257 C   0  0  0  0  0  0  0  0  0  0  0  0
   39.6656  -47.4505    8.4903 C   0  0  0  0  0  0  0  0  0  0  0  0
   42.7434  -46.2350    6.9043 N   0  0  0  0  0  0  0  0  0  0  0  0
   43.8418  -45.5300    7.0317 C   0  0  0  0  0  0  0  0  0  0  0  0
   44.8916  -45.6160    6.1685 N   0  0  0  0  0  0  0  0  0  0  0  0
   45.9850  -44.8810    6.3355 N   0  0  0  0  0  0  0  0  0  0  0  0
  1  2  1  0  0  0  0
  2  3  1  0  0  0  0
  3  4  2  0  0  0  0
  4  5  1  0  0  0  0
  5  6  1  0  0  0  0
  6  7  2  0  0  0  0
  6  8  1  0  0  0  0
  8  9  1  0  0  0  0
  8 17  1  0  0  0  0
  9 10  1  0  0  0  0
 10 11  1  0  0  0  0
 11 12  1  0  0  0  0
 12 13  1  0  0  0  0
 13 14  1  0  0  0  0
 14 15  1  0  0  0  0
 15 16  1  0  0  0  0
 16 11  1  0  0  0  0
 17 18  1  0  0  0  0
 17 24  2  0  0  0  0
 18 19  2  0  0  0  0
 19 20  1  0  0  0  0
 20 21  2  0  0  0  0
 21 22  1  0  0  0  0
 22 23  2  0  0  0  0
 23 18  1  0  0  0  0
 24 25  1  0  0  0  0
 25 26  1  0  0  0  0
 25  5  2  0  0  0  0
 26 27  2  0  0  0  0
 27  3  1  0  0  0  0
M  END
>  <CHROM.1>
-56.60745244,108.70604387,-47.48265494,-95.64900257,162.53143480,42.11943000
-44.58100664,7.86355334,0.26703524,0.11822241,0.23720087

>  <Name>
design_8

>  <RI>
0

>  <Rbt.Current_Directory>
/home/ziqiaoxu/icml18-jtnn/VAEdesign

>  <Rbt.Executable>
rbdock ($Id: //depot/dev/client3/rdock/2013.1/src/exe/rbdock.cxx#4 $)

>  <Rbt.Library>
libRbt.so (2013.1, Build901 2013/11/27)

>  <Rbt.Parameter_File>
/export/apps/rDock/src/rDock_2013.1_src//data/scripts/dock.prm

>  <Rbt.Receptor>
/home/ziqiaoxu/icml18-jtnn/VAEdesign/targets/RdRp-SARS-CoV-2/pocket_docking.prm

>  <SCORE>
-15.9926

>  <SCORE.INTER>
-15.3992

>  <SCORE.INTER.CONST>
1

>  <SCORE.INTER.POLAR>
-0.0816444

>  <SCORE.INTER.REPUL>
0

>  <SCORE.INTER.ROT>
5

>  <SCORE.INTER.VDW>
-25.5216

>  <SCORE.INTER.norm>
-0.57034

>  <SCORE.INTRA>
-0.59336

>  <SCORE.INTRA.DIHEDRAL>
1.08924

>  <SCORE.INTRA.DIHEDRAL.0>
6.17522

>  <SCORE.INTRA.POLAR>
0

>  <SCORE.INTRA.POLAR.0>
0

>  <SCORE.INTRA.REPUL>
0

>  <SCORE.INTRA.REPUL.0>
0

>  <SCORE.INTRA.VDW>
-1.13798

>  <SCORE.INTRA.VDW.0>
-0.864874

>  <SCORE.INTRA.norm>
-0.0219763

>  <SCORE.RESTR>
0

>  <SCORE.RESTR.CAVITY>
0

>  <SCORE.RESTR.norm>
0

>  <SCORE.SYSTEM>
0

>  <SCORE.SYSTEM.CONST>
0

>  <SCORE.SYSTEM.DIHEDRAL>
0

>  <SCORE.SYSTEM.norm>
0

>  <SCORE.heavy>
27

>  <SCORE.norm>
-0.592317

$$$$
design_8
 OpenBabel05252019093D

 24 26  0  0  0  0  0  0  0  0999 V2000
   40.1841  -46.2893   10.4968 N   0  0  0  0  0  0  0  0  0  0  0  0
   41.0072  -45.8384    9.4365 C   0  0  0  0  0  0  0  0  0  0  0  0
   41.0875  -46.4220    8.3090 O   0  0  0  0  0  0  0  0  0  0  0  0
   41.8099  -44.6263    9.6586 C   0  0  0  0  0  0  0  0  0  0  0  0
   42.6314  -44.2402    8.4701 C   0  0  0  0  0  0  0  0  0  0  0  0
   43.6645  -45.0340    8.0402 C   0  0  0  0  0  0  0  0  0  0  0  0
   44.4435  -44.7270    6.9485 C   0  0  0  0  0  0  0  0  0  0  0  0
   44.1906  -43.5818    6.2491 C   0  0  0  0  0  0  0  0  0  0  0  0
   43.1455  -42.7543    6.6640 C   0  0  0  0  0  0  0  0  0  0  0  0
   42.3630  -43.0607    7.7590 C   0  0  0  0  0  0  0  0  0  0  0  0
   41.3180  -42.2148    8.1682 N   0  0  0  0  0  0  0  0  0  0  0  0
   40.4490  -41.4037    7.4471 C   0  0  0  0  0  0  0  0  0  0  0  0
   40.5080  -41.3349    6.1959 O   0  0  0  0  0  0  0  0  0  0  0  0
   39.3961  -40.5657    8.1075 C   0  0  0  0  0  0  0  0  0  0  0  0
   39.9932  -38.8611    8.2440 S   0  0  0  0  0  0  0  0  0  0  0  0
   40.0388  -38.1620    6.5786 C   0  0  0  0  0  0  0  0  0  0  0  0
   40.1202  -38.7894    5.4240 N   0  0  0  0  0  0  0  0  0  0  0  0
   40.1462  -38.1070    4.3049 C   0  0  0  0  0  0  0  0  0  0  0  0
   40.2284  -38.6497    3.0057 C   0  0  0  0  0  0  0  0  0  0  0  0
   40.2437  -37.8130    1.9367 C   0  0  0  0  0  0  0  0  0  0  0  0
   40.1842  -36.4304    1.9985 C   0  0  0  0  0  0  0  0  0  0  0  0
   40.1032  -35.9036    3.2829 C   0  0  0  0  0  0  0  0  0  0  0  0
   40.0864  -36.7440    4.3990 C   0  0  0  0  0  0  0  0  0  0  0  0
   39.9951  -36.5225    6.0994 S   0  0  0  0  0  0  0  0  0  0  0  0
  1  2  1  0  0  0  0
  2  3  2  0  0  0  0
  2  4  1  0  0  0  0
  4  5  1  0  0  0  0
  5  6  2  0  0  0  0
  6  7  1  0  0  0  0
  7  8  2  0  0  0  0
  8  9  1  0  0  0  0
  9 10  2  0  0  0  0
 10 11  1  0  0  0  0
 10  5  1  0  0  0  0
 11 12  1  0  0  0  0
 12 13  2  0  0  0  0
 12 14  1  0  0  0  0
 14 15  1  0  0  0  0
 15 16  1  0  0  0  0
 16 17  2  0  0  0  0
 17 18  1  0  0  0  0
 18 19  2  0  0  0  0
 19 20  1  0  0  0  0
 20 21  2  0  0  0  0
 21 22  1  0  0  0  0
 22 23  2  0  0  0  0
 23 24  1  0  0  0  0
 23 18  1  0  0  0  0
 24 16  1  0  0  0  0
M  END
>  <CHROM.1>
-179.62609963,-66.50290294,-146.61794461,99.23533337,70.07828172,-23.13665311
40.99986435,-40.89732259,6.67912699,1.21441960,-0.91799757,2.35185505

>  <Name>
design_8

>  <RI>
0

>  <Rbt.Current_Directory>
/home/ziqiaoxu/icml18-jtnn/VAEdesign

>  <Rbt.Executable>
rbdock ($Id: //depot/dev/client3/rdock/2013.1/src/exe/rbdock.cxx#4 $)

>  <Rbt.Library>
libRbt.so (2013.1, Build901 2013/11/27)

>  <Rbt.Parameter_File>
/export/apps/rDock/src/rDock_2013.1_src//data/scripts/dock.prm

>  <Rbt.Receptor>
/home/ziqiaoxu/icml18-jtnn/VAEdesign/targets/RdRp-SARS-CoV-2/pocket_docking.prm

>  <SCORE>
-20.2183

>  <SCORE.INTER>
-21.6854

>  <SCORE.INTER.CONST>
1

>  <SCORE.INTER.POLAR>
-2.22482

>  <SCORE.INTER.REPUL>
0

>  <SCORE.INTER.ROT>
6

>  <SCORE.INTER.VDW>
-25.521

>  <SCORE.INTER.norm>
-0.90356

>  <SCORE.INTRA>
1.44677

>  <SCORE.INTRA.DIHEDRAL>
4.6137

>  <SCORE.INTRA.DIHEDRAL.0>
3.39474

>  <SCORE.INTRA.POLAR>
0

>  <SCORE.INTRA.POLAR.0>
0

>  <SCORE.INTRA.REPUL>
0

>  <SCORE.INTRA.REPUL.0>
0

>  <SCORE.INTRA.VDW>
-0.860085

>  <SCORE.INTRA.VDW.0>
-1.12423

>  <SCORE.INTRA.norm>
0.0602819

>  <SCORE.RESTR>
0.0203378

>  <SCORE.RESTR.CAVITY>
0.0203378

>  <SCORE.RESTR.norm>
0.000847409

>  <SCORE.SYSTEM>
0

>  <SCORE.SYSTEM.CONST>
0

>  <SCORE.SYSTEM.DIHEDRAL>
0

>  <SCORE.SYSTEM.norm>
0

>  <SCORE.heavy>
24

>  <SCORE.norm>
-0.842431

$$$$
design_11
 OpenBabel05252019093D

 27 30  0  0  0  0  0  0  0  0999 V2000
   44.9757  -38.5835   -1.1152 C   0  0  0  0  0  0  0  0  0  0  0  0
   45.3554  -40.0152   -1.0387 C   0  0  0  0  0  0  0  0  0  0  0  0
   46.4870  -40.5441   -1.5361 N   0  0  0  0  0  0  0  0  0  0  0  0
   46.5001  -41.8594   -1.2830 N   0  0  0  0  0  0  0  0  0  0  0  0
   45.3747  -42.1883   -0.6193 C   0  0  0  0  0  0  0  0  0  0  0  0
   45.0550  -43.5487   -0.1764 C   0  0  0  0  0  0  0  0  0  0  0  0
   45.8489  -44.6058   -0.5707 C   0  0  0  0  0  0  0  0  0  0  0  0
   45.5465  -45.8710   -0.1514 C   0  0  0  0  0  0  0  0  0  0  0  0
   44.4319  -46.0957    0.6780 C   0  0  0  0  0  0  0  0  0  0  0  0
   43.6358  -45.0588    1.0765 C   0  0  0  0  0  0  0  0  0  0  0  0
   42.4714  -45.2514    1.9389 C   0  0  0  0  0  0  0  0  0  0  0  0
   42.7469  -45.7154    3.2709 N   0  0  0  0  0  0  0  0  0  0  0  0
   42.2080  -45.1985    4.4653 C   0  0  0  0  0  0  0  0  0  0  0  0
   41.3967  -44.2454    4.3903 O   0  0  0  0  0  0  0  0  0  0  0  0
   42.5566  -45.7280    5.7685 C   0  0  0  0  0  0  0  0  0  0  0  0
   41.5084  -46.2963    6.5777 C   0  0  0  0  0  0  0  0  0  0  0  0
   40.6190  -47.2561    6.1471 C   0  0  0  0  0  0  0  0  0  0  0  0
   39.7961  -47.5531    7.1570 N   0  0  0  0  0  0  0  0  0  0  0  0
   40.1020  -46.8258    8.2502 C   0  0  0  0  0  0  0  0  0  0  0  0
   39.5862  -46.7361    9.5285 C   0  0  0  0  0  0  0  0  0  0  0  0
   40.1502  -45.8587   10.4294 C   0  0  0  0  0  0  0  0  0  0  0  0
   41.2292  -45.0718   10.0515 C   0  0  0  0  0  0  0  0  0  0  0  0
   41.7905  -44.2059   10.9237 F   0  0  0  0  0  0  0  0  0  0  0  0
   41.7545  -45.1491    8.7837 C   0  0  0  0  0  0  0  0  0  0  0  0
   41.1747  -46.0324    7.9016 C   0  0  0  0  0  0  0  0  0  0  0  0
   43.9675  -43.7973    0.6372 C   0  0  0  0  0  0  0  0  0  0  0  0
   44.6869  -41.0521   -0.4782 N   0  0  0  0  0  0  0  0  0  0  0  0
  1  2  1  0  0  0  0
  2  3  2  0  0  0  0
  3  4  1  0  0  0  0
  4  5  1  0  0  0  0
  5  6  1  0  0  0  0
  5 27  2  0  0  0  0
  6  7  2  0  0  0  0
  7  8  1  0  0  0  0
  8  9  2  0  0  0  0
  9 10  1  0  0  0  0
 10 11  1  0  0  0  0
 10 26  2  0  0  0  0
 11 12  1  0  0  0  0
 12 13  1  0  0  0  0
 13 14  2  0  0  0  0
 13 15  1  0  0  0  0
 15 16  1  0  0  0  0
 16 17  2  0  0  0  0
 17 18  1  0  0  0  0
 18 19  1  0  0  0  0
 19 20  2  0  0  0  0
 20 21  1  0  0  0  0
 21 22  2  0  0  0  0
 22 23  1  0  0  0  0
 22 24  1  0  0  0  0
 24 25  2  0  0  0  0
 25 16  1  0  0  0  0
 25 19  1  0  0  0  0
 26  6  1  0  0  0  0
 27  2  1  0  0  0  0
M  END
>  <CHROM.1>
-7.72917372,65.03745517,133.40832576,-118.57256287,51.42347153,42.99357110
-44.41975252,3.79260890,-0.18184323,1.14264676,0.59174741

>  <Name>
design_11

>  <RI>
0

>  <Rbt.Current_Directory>
/home/ziqiaoxu/icml18-jtnn/VAEdesign

>  <Rbt.Executable>
rbdock ($Id: //depot/dev/client3/rdock/2013.1/src/exe/rbdock.cxx#4 $)

>  <Rbt.Library>
libRbt.so (2013.1, Build901 2013/11/27)

>  <Rbt.Parameter_File>
/export/apps/rDock/src/rDock_2013.1_src//data/scripts/dock.prm

>  <Rbt.Receptor>
/home/ziqiaoxu/icml18-jtnn/VAEdesign/targets/RdRp-SARS-CoV-2/pocket_docking.prm

>  <SCORE>
-20.7953

>  <SCORE.INTER>
-22.2625

>  <SCORE.INTER.CONST>
1

>  <SCORE.INTER.POLAR>
-2.10068

>  <SCORE.INTER.REPUL>
0.000126116

>  <SCORE.INTER.ROT>
5

>  <SCORE.INTER.VDW>
-25.5208

>  <SCORE.INTER.norm>
-0.824535

>  <SCORE.INTRA>
1.46711

>  <SCORE.INTRA.DIHEDRAL>
2.21875

>  <SCORE.INTRA.DIHEDRAL.0>
3.83392

>  <SCORE.INTRA.POLAR>
0

>  <SCORE.INTRA.POLAR.0>
0

>  <SCORE.INTRA.REPUL>
0

>  <SCORE.INTRA.REPUL.0>
0

>  <SCORE.INTRA.VDW>
0.357739

>  <SCORE.INTRA.VDW.0>
-2.2658

>  <SCORE.INTRA.norm>
0.0543376

>  <SCORE.RESTR>
0

>  <SCORE.RESTR.CAVITY>
0

>  <SCORE.RESTR.norm>
0

>  <SCORE.SYSTEM>
0

>  <SCORE.SYSTEM.CONST>
0

>  <SCORE.SYSTEM.DIHEDRAL>
0

>  <SCORE.SYSTEM.norm>
0

>  <SCORE.heavy>
27

>  <SCORE.norm>
-0.770198

$$$$
design_2
 OpenBabel05252019093D

 25 28  0  0  0  0  0  0  0  0999 V2000
   38.7970  -49.6159    6.1418 O   0  0  0  0  0  0  0  0  0  0  0  0
   38.4280  -48.4094    6.0760 C   0  0  0  0  0  0  0  0  0  0  0  0
   37.2487  -48.0518    5.6116 O   0  0  0  0  0  0  0  0  0  0  0  0
   37.1791  -46.7591    5.6765 C   0  0  0  0  0  0  0  0  0  0  0  0
   36.1956  -45.8827    5.3309 C   0  0  0  0  0  0  0  0  0  0  0  0
   36.3672  -44.5226    5.5009 C   0  0  0  0  0  0  0  0  0  0  0  0
   37.5296  -44.0317    6.0200 C   0  0  0  0  0  0  0  0  0  0  0  0
   38.5171  -44.9074    6.3673 C   0  0  0  0  0  0  0  0  0  0  0  0
   38.3710  -46.2632    6.2083 C   0  0  0  0  0  0  0  0  0  0  0  0
   39.1357  -47.3370    6.4484 N   0  0  0  0  0  0  0  0  0  0  0  0
   40.4455  -47.3362    6.9931 C   0  0  0  0  0  0  0  0  0  0  0  0
   40.6324  -46.4287    8.1561 C   0  0  0  0  0  0  0  0  0  0  0  0
   39.8931  -46.5577    9.3101 C   0  0  0  0  0  0  0  0  0  0  0  0
   40.1190  -45.6787   10.3523 C   0  0  0  0  0  0  0  0  0  0  0  0
   41.0580  -44.6966   10.2444 C   0  0  0  0  0  0  0  0  0  0  0  0
   41.8409  -44.5216    9.0845 C   0  0  0  0  0  0  0  0  0  0  0  0
   42.7526  -43.5144    9.0750 O   0  0  0  0  0  0  0  0  0  0  0  0
   44.0687  -43.5760    8.6798 C   0  0  0  0  0  0  0  0  0  0  0  0
   45.0249  -44.3267    9.5363 C   0  0  0  0  0  0  0  0  0  0  0  0
   45.0126  -43.6601   10.8507 N   0  0  0  0  0  0  0  0  0  0  0  0
   44.3550  -44.0812   11.9509 C   0  0  0  0  0  0  0  0  0  0  0  0
   44.5767  -43.2067   12.9945 C   0  0  0  0  0  0  0  0  0  0  0  0
   45.3809  -42.2581   12.4858 N   0  0  0  0  0  0  0  0  0  0  0  0
   45.6539  -42.5137   11.1982 C   0  0  0  0  0  0  0  0  0  0  0  0
   41.5790  -45.4188    8.0815 C   0  0  0  0  0  0  0  0  0  0  0  0
  1  2  2  0  0  0  0
  2  3  1  0  0  0  0
  3  4  1  0  0  0  0
  4  5  2  0  0  0  0
  5  6  1  0  0  0  0
  6  7  2  0  0  0  0
  7  8  1  0  0  0  0
  8  9  2  0  0  0  0
  9 10  1  0  0  0  0
  9  4  1  0  0  0  0
 10 11  1  0  0  0  0
 10  2  1  0  0  0  0
 11 12  1  0  0  0  0
 12 13  2  0  0  0  0
 13 14  1  0  0  0  0
 14 15  2  0  0  0  0
 15 16  1  0  0  0  0
 16 17  1  0  0  0  0
 16 25  2  0  0  0  0
 17 18  1  0  0  0  0
 18 19  1  0  0  0  0
 19 20  1  0  0  0  0
 20 21  1  0  0  0  0
 21 22  2  0  0  0  0
 22 23  1  0  0  0  0
 23 24  2  0  0  0  0
 24 20  1  0  0  0  0
 25 12  1  0  0  0  0
M  END
>  <CHROM.1>
-135.99569903,59.12094564,132.78449827,-70.29514840,-60.49944949,101.05577315
40.83943044,-45.36048617,8.33202489,-2.68307844,-0.60646453,0.12164476

>  <Name>
design_2

>  <RI>
0

>  <Rbt.Current_Directory>
/home/ziqiaoxu/icml18-jtnn/VAEdesign

>  <Rbt.Executable>
rbdock ($Id: //depot/dev/client3/rdock/2013.1/src/exe/rbdock.cxx#4 $)

>  <Rbt.Library>
libRbt.so (2013.1, Build901 2013/11/27)

>  <Rbt.Parameter_File>
/export/apps/rDock/src/rDock_2013.1_src//data/scripts/dock.prm

>  <Rbt.Receptor>
/home/ziqiaoxu/icml18-jtnn/VAEdesign/targets/RdRp-SARS-CoV-2/pocket_docking.prm

>  <SCORE>
-13.0241

>  <SCORE.INTER>
-14.2635

>  <SCORE.INTER.CONST>
1

>  <SCORE.INTER.POLAR>
-0.0419938

>  <SCORE.INTER.REPUL>
0

>  <SCORE.INTER.ROT>
6

>  <SCORE.INTER.VDW>
-25.5207

>  <SCORE.INTER.norm>
-0.57054

>  <SCORE.INTRA>
1.2394

>  <SCORE.INTRA.DIHEDRAL>
2.99504

>  <SCORE.INTRA.DIHEDRAL.0>
5.6078

>  <SCORE.INTRA.POLAR>
0

>  <SCORE.INTRA.POLAR.0>
0

>  <SCORE.INTRA.REPUL>
0

>  <SCORE.INTRA.REPUL.0>
0

>  <SCORE.INTRA.VDW>
-0.258119

>  <SCORE.INTRA.VDW.0>
-2.31297

>  <SCORE.INTRA.norm>
0.049576

>  <SCORE.RESTR>
0

>  <SCORE.RESTR.CAVITY>
0

>  <SCORE.RESTR.norm>
0

>  <SCORE.SYSTEM>
0

>  <SCORE.SYSTEM.CONST>
0

>  <SCORE.SYSTEM.DIHEDRAL>
0

>  <SCORE.SYSTEM.norm>
0

>  <SCORE.heavy>
25

>  <SCORE.norm>
-0.520964

$$$$
design_10
 OpenBabel05252019093D

 24 26  0  0  0  0  0  0  0  0999 V2000
   40.0781  -37.5503    2.5820 C   0  0  0  0  0  0  0  0  0  0  0  0
   39.8083  -37.5520    4.0636 C   0  0  0  0  0  0  0  0  0  0  0  0
   39.4769  -36.5124    4.8404 N   0  0  0  0  0  0  0  0  0  0  0  0
   39.3285  -36.9376    6.0802 N   0  0  0  0  0  0  0  0  0  0  0  0
   39.5633  -38.2588    6.1156 C   0  0  0  0  0  0  0  0  0  0  0  0
   39.5204  -39.1613    7.2567 C   0  0  0  0  0  0  0  0  0  0  0  0
   40.4356  -38.9432    8.2682 C   0  0  0  0  0  0  0  0  0  0  0  0
   40.4064  -39.7868    9.3512 C   0  0  0  0  0  0  0  0  0  0  0  0
   39.4907  -40.8155    9.4196 C   0  0  0  0  0  0  0  0  0  0  0  0
   39.5363  -41.6817   10.6519 C   0  0  0  0  0  0  0  0  0  0  0  0
   39.3234  -43.0652   10.1965 N   0  0  0  0  0  0  0  0  0  0  0  0
   40.0997  -43.5608    9.1333 C   0  0  0  0  0  0  0  0  0  0  0  0
   40.9782  -42.8922    8.5332 O   0  0  0  0  0  0  0  0  0  0  0  0
   39.8645  -44.9588    8.6962 C   0  0  0  0  0  0  0  0  0  0  0  0
   40.2958  -45.5840    7.5626 C   0  0  0  0  0  0  0  0  0  0  0  0
   39.9514  -46.8699    7.3833 C   0  0  0  0  0  0  0  0  0  0  0  0
   40.3577  -47.6568    6.1924 C   0  0  0  0  0  0  0  0  0  0  0  0
   39.9018  -48.9812    6.0393 N   0  0  0  0  0  0  0  0  0  0  0  0
   41.0996  -47.1705    5.3156 O   0  0  0  0  0  0  0  0  0  0  0  0
   39.1886  -47.4446    8.3678 C   0  0  0  0  0  0  0  0  0  0  0  0
   38.9807  -46.1892    9.4938 S   0  0  0  0  0  0  0  0  0  0  0  0
   38.5810  -41.0263    8.4062 C   0  0  0  0  0  0  0  0  0  0  0  0
   38.6044  -40.1841    7.3167 C   0  0  0  0  0  0  0  0  0  0  0  0
   39.8587  -38.6278    4.8645 N   0  0  0  0  0  0  0  0  0  0  0  0
  1  2  1  0  0  0  0
  2  3  2  0  0  0  0
  3  4  1  0  0  0  0
  4  5  1  0  0  0  0
  5  6  1  0  0  0  0
  5 24  2  0  0  0  0
  6  7  2  0  0  0  0
  7  8  1  0  0  0  0
  8  9  2  0  0  0  0
  9 10  1  0  0  0  0
  9 22  1  0  0  0  0
 10 11  1  0  0  0  0
 11 12  1  0  0  0  0
 12 13  2  0  0  0  0
 12 14  1  0  0  0  0
 14 15  2  0  0  0  0
 15 16  1  0  0  0  0
 16 17  1  0  0  0  0
 16 20  2  0  0  0  0
 17 18  1  0  0  0  0
 17 19  2  0  0  0  0
 20 21  1  0  0  0  0
 21 14  1  0  0  0  0
 22 23  2  0  0  0  0
 23  6  1  0  0  0  0
 24  2  1  0  0  0  0
M  END
>  <CHROM.1>
-63.83814104,-139.82918400,50.26490722,166.85133432,-176.75775382,39.74884600
-42.39638490,7.42177497,-1.70965917,-1.44169301,2.77437993

>  <Name>
design_10

>  <RI>
0

>  <Rbt.Current_Directory>
/home/ziqiaoxu/icml18-jtnn/VAEdesign

>  <Rbt.Executable>
rbdock ($Id: //depot/dev/client3/rdock/2013.1/src/exe/rbdock.cxx#4 $)

>  <Rbt.Library>
libRbt.so (2013.1, Build901 2013/11/27)

>  <Rbt.Parameter_File>
/export/apps/rDock/src/rDock_2013.1_src//data/scripts/dock.prm

>  <Rbt.Receptor>
/home/ziqiaoxu/icml18-jtnn/VAEdesign/targets/RdRp-SARS-CoV-2/pocket_docking.prm

>  <SCORE>
-19.7932

>  <SCORE.INTER>
-25.7882

>  <SCORE.INTER.CONST>
1

>  <SCORE.INTER.POLAR>
-3.1828

>  <SCORE.INTER.REPUL>
0.0306321

>  <SCORE.INTER.ROT>
5

>  <SCORE.INTER.VDW>
-25.5198

>  <SCORE.INTER.norm>
-1.07451

>  <SCORE.INTRA>
5.995

>  <SCORE.INTRA.DIHEDRAL>
10.9321

>  <SCORE.INTRA.DIHEDRAL.0>
1.93116

>  <SCORE.INTRA.POLAR>
0

>  <SCORE.INTRA.POLAR.0>
0

>  <SCORE.INTRA.REPUL>
0

>  <SCORE.INTRA.REPUL.0>
0

>  <SCORE.INTRA.VDW>
0.528954

>  <SCORE.INTRA.VDW.0>
-2.28569

>  <SCORE.INTRA.norm>
0.249792

>  <SCORE.RESTR>
0

>  <SCORE.RESTR.CAVITY>
0

>  <SCORE.RESTR.norm>
0

>  <SCORE.SYSTEM>
0

>  <SCORE.SYSTEM.CONST>
0

>  <SCORE.SYSTEM.DIHEDRAL>
0

>  <SCORE.SYSTEM.norm>
0

>  <SCORE.heavy>
24

>  <SCORE.norm>
-0.824716

$$$$
design_1
 OpenBabel05252019093D

 25 27  0  0  0  0  0  0  0  0999 V2000
   39.8433  -41.7151    7.7278 O   0  0  0  0  0  0  0  0  0  0  0  0
   39.6912  -40.9689    8.6824 C   0  0  0  0  0  0  0  0  0  0  0  0
   39.5125  -41.4696    9.9833 N   0  0  0  0  0  0  0  0  0  0  0  0
   39.4808  -42.8428   10.3925 C   0  0  0  0  0  0  0  0  0  0  0  0
   40.8242  -43.4624   10.2646 C   0  0  0  0  0  0  0  0  0  0  0  0
   40.8067  -44.9004   10.8492 C   0  0  0  0  0  0  0  0  0  0  0  0
   40.1245  -45.7252    9.9722 N   0  0  0  0  0  0  0  0  0  0  0  0
   39.4729  -46.5100    9.1406 C   0  0  0  0  0  0  0  0  0  0  0  0
   38.3382  -47.1095    9.3624 O   0  0  0  0  0  0  0  0  0  0  0  0
   39.9976  -46.7848    7.7551 C   0  0  0  0  0  0  0  0  0  0  0  0
   39.1636  -47.6296    6.9761 C   0  0  0  0  0  0  0  0  0  0  0  0
   39.5091  -47.8820    5.6786 C   0  0  0  0  0  0  0  0  0  0  0  0
   40.6565  -47.3449    5.0835 C   0  0  0  0  0  0  0  0  0  0  0  0
   41.4394  -46.5382    5.8750 C   0  0  0  0  0  0  0  0  0  0  0  0
   42.6321  -45.8618    5.6175 C   0  0  0  0  0  0  0  0  0  0  0  0
   42.9383  -45.2234    6.8110 C   0  0  0  0  0  0  0  0  0  0  0  0
   42.0503  -45.4658    7.7202 O   0  0  0  0  0  0  0  0  0  0  0  0
   41.0989  -46.2735    7.1923 C   0  0  0  0  0  0  0  0  0  0  0  0
   39.6980  -39.5313    8.4722 N   0  0  0  0  0  0  0  0  0  0  0  0
   39.8676  -38.9468    7.2062 C   0  0  0  0  0  0  0  0  0  0  0  0
   39.9209  -37.5354    7.1295 C   0  0  0  0  0  0  0  0  0  0  0  0
   40.0876  -36.8373    5.9989 C   0  0  0  0  0  0  0  0  0  0  0  0
   40.2310  -37.4991    4.7854 C   0  0  0  0  0  0  0  0  0  0  0  0
   40.1872  -38.8953    4.8085 C   0  0  0  0  0  0  0  0  0  0  0  0
   40.0101  -39.5773    6.0052 C   0  0  0  0  0  0  0  0  0  0  0  0
  1  2  2  0  0  0  0
  2  3  1  0  0  0  0
  2 19  1  0  0  0  0
  3  4  1  0  0  0  0
  4  5  1  0  0  0  0
  5  6  1  0  0  0  0
  6  7  1  0  0  0  0
  7  8  1  0  0  0  0
  8  9  2  0  0  0  0
  8 10  1  0  0  0  0
 10 11  2  0  0  0  0
 11 12  1  0  0  0  0
 12 13  2  0  0  0  0
 13 14  1  0  0  0  0
 14 15  1  0  0  0  0
 15 16  2  0  0  0  0
 16 17  1  0  0  0  0
 17 18  1  0  0  0  0
 18 10  1  0  0  0  0
 18 14  2  0  0  0  0
 19 20  1  0  0  0  0
 20 21  2  0  0  0  0
 21 22  1  0  0  0  0
 22 23  2  0  0  0  0
 23 24  1  0  0  0  0
 24 25  2  0  0  0  0
 25 20  1  0  0  0  0
M  END
>  <CHROM.1>
69.29314051,174.10700906,73.52254064,-111.35112029,-178.82418595,-177.04964178
40.28531519,-43.30262891,7.66412826,1.75467692,1.30591115,-0.28885552

>  <Name>
design_1

>  <RI>
0

>  <Rbt.Current_Directory>
/home/ziqiaoxu/icml18-jtnn/VAEdesign

>  <Rbt.Executable>
rbdock ($Id: //depot/dev/client3/rdock/2013.1/src/exe/rbdock.cxx#4 $)

>  <Rbt.Library>
libRbt.so (2013.1, Build901 2013/11/27)

>  <Rbt.Parameter_File>
/export/apps/rDock/src/rDock_2013.1_src//data/scripts/dock.prm

>  <Rbt.Receptor>
/home/ziqiaoxu/icml18-jtnn/VAEdesign/targets/RdRp-SARS-CoV-2/pocket_docking.prm

>  <SCORE>
-26.2417

>  <SCORE.INTER>
-22.5684

>  <SCORE.INTER.CONST>
1

>  <SCORE.INTER.POLAR>
-2.48497

>  <SCORE.INTER.REPUL>
0

>  <SCORE.INTER.ROT>
6

>  <SCORE.INTER.VDW>
-25.5195

>  <SCORE.INTER.norm>
-0.902735

>  <SCORE.INTRA>
-4.13636

>  <SCORE.INTRA.DIHEDRAL>
-7.14022

>  <SCORE.INTRA.DIHEDRAL.0>
11.3495

>  <SCORE.INTRA.POLAR>
0

>  <SCORE.INTRA.POLAR.0>
0

>  <SCORE.INTRA.REPUL>
0

>  <SCORE.INTRA.REPUL.0>
0

>  <SCORE.INTRA.VDW>
-0.566252

>  <SCORE.INTRA.VDW.0>
-0.15027

>  <SCORE.INTRA.norm>
-0.165455

>  <SCORE.RESTR>
0.463067

>  <SCORE.RESTR.CAVITY>
0.463067

>  <SCORE.RESTR.norm>
0.0185227

>  <SCORE.SYSTEM>
0

>  <SCORE.SYSTEM.CONST>
0

>  <SCORE.SYSTEM.DIHEDRAL>
0

>  <SCORE.SYSTEM.norm>
0

>  <SCORE.heavy>
25

>  <SCORE.norm>
-1.04967

$$$$
design_12
 OpenBabel05252019093D

 24 26  0  0  0  0  0  0  0  0999 V2000
   47.4557  -48.2640   -0.3101 N   0  0  0  0  0  0  0  0  0  0  0  0
   47.9035  -47.2586    0.5569 C   0  0  0  0  0  0  0  0  0  0  0  0
   47.6719  -46.0644    0.3034 O   0  0  0  0  0  0  0  0  0  0  0  0
   48.6492  -47.6325    1.7670 C   0  0  0  0  0  0  0  0  0  0  0  0
   47.6566  -47.8322    2.8907 C   0  0  0  0  0  0  0  0  0  0  0  0
   47.0292  -46.5472    3.2870 C   0  0  0  0  0  0  0  0  0  0  0  0
   46.0497  -46.1478    2.6405 O   0  0  0  0  0  0  0  0  0  0  0  0
   47.5264  -45.7956    4.3664 N   0  0  0  0  0  0  0  0  0  0  0  0
   46.9198  -44.5576    4.7469 C   0  0  0  0  0  0  0  0  0  0  0  0
   45.8335  -44.6864    5.7451 C   0  0  0  0  0  0  0  0  0  0  0  0
   45.9144  -44.0959    6.9866 C   0  0  0  0  0  0  0  0  0  0  0  0
   44.9062  -44.2083    7.9222 C   0  0  0  0  0  0  0  0  0  0  0  0
   43.7602  -44.9289    7.6444 C   0  0  0  0  0  0  0  0  0  0  0  0
   42.7199  -45.0438    8.6149 N   0  0  0  0  0  0  0  0  0  0  0  0
   42.7065  -44.3940    9.8020 C   0  0  0  0  0  0  0  0  0  0  0  0
   41.5724  -44.7585   10.4276 N   0  0  0  0  0  0  0  0  0  0  0  0
   40.8743  -45.6215    9.6608 C   0  0  0  0  0  0  0  0  0  0  0  0
   39.6850  -46.3002    9.7818 C   0  0  0  0  0  0  0  0  0  0  0  0
   39.1803  -47.1500    8.8195 C   0  0  0  0  0  0  0  0  0  0  0  0
   39.9304  -47.3172    7.6692 C   0  0  0  0  0  0  0  0  0  0  0  0
   41.1379  -46.6466    7.5131 C   0  0  0  0  0  0  0  0  0  0  0  0
   41.6148  -45.8029    8.4958 C   0  0  0  0  0  0  0  0  0  0  0  0
   43.6844  -45.5180    6.4007 C   0  0  0  0  0  0  0  0  0  0  0  0
   44.7051  -45.4056    5.4497 C   0  0  0  0  0  0  0  0  0  0  0  0
  1  2  1  0  0  0  0
  2  3  2  0  0  0  0
  2  4  1  0  0  0  0
  4  5  1  0  0  0  0
  5  6  1  0  0  0  0
  6  7  2  0  0  0  0
  6  8  1  0  0  0  0
  8  9  1  0  0  0  0
  9 10  1  0  0  0  0
 10 11  2  0  0  0  0
 11 12  1  0  0  0  0
 12 13  2  0  0  0  0
 13 14  1  0  0  0  0
 13 23  1  0  0  0  0
 14 15  1  0  0  0  0
 15 16  2  0  0  0  0
 16 17  1  0  0  0  0
 17 18  2  0  0  0  0
 18 19  1  0  0  0  0
 19 20  2  0  0  0  0
 20 21  1  0  0  0  0
 21 22  2  0  0  0  0
 22 14  1  0  0  0  0
 22 17  1  0  0  0  0
 23 24  2  0  0  0  0
 24 10  1  0  0  0  0
M  END
>  <CHROM.1>
-90.17097994,-68.27813384,84.21744165,89.78078044,118.35862348,5.65841240
44.48976251,-45.94678584,5.72980053,0.75313717,-0.47077089,-2.17882161

>  <Name>
design_12

>  <RI>
0

>  <Rbt.Current_Directory>
/home/ziqiaoxu/icml18-jtnn/VAEdesign

>  <Rbt.Executable>
rbdock ($Id: //depot/dev/client3/rdock/2013.1/src/exe/rbdock.cxx#4 $)

>  <Rbt.Library>
libRbt.so (2013.1, Build901 2013/11/27)

>  <Rbt.Parameter_File>
/export/apps/rDock/src/rDock_2013.1_src//data/scripts/dock.prm

>  <Rbt.Receptor>
/home/ziqiaoxu/icml18-jtnn/VAEdesign/targets/RdRp-SARS-CoV-2/pocket_docking.prm

>  <SCORE>
-27.5645

>  <SCORE.INTER>
-21.9852

>  <SCORE.INTER.CONST>
1

>  <SCORE.INTER.POLAR>
-2.38739

>  <SCORE.INTER.REPUL>
0.0502832

>  <SCORE.INTER.ROT>
6

>  <SCORE.INTER.VDW>
-25.5195

>  <SCORE.INTER.norm>
-0.91605

>  <SCORE.INTRA>
-5.57933

>  <SCORE.INTRA.DIHEDRAL>
-4.98514

>  <SCORE.INTRA.DIHEDRAL.0>
11.3666

>  <SCORE.INTRA.POLAR>
0

>  <SCORE.INTRA.POLAR.0>
0

>  <SCORE.INTRA.REPUL>
0

>  <SCORE.INTRA.REPUL.0>
0

>  <SCORE.INTRA.VDW>
-3.08676

>  <SCORE.INTRA.VDW.0>
1.65962

>  <SCORE.INTRA.norm>
-0.232472

>  <SCORE.RESTR>
0

>  <SCORE.RESTR.CAVITY>
0

>  <SCORE.RESTR.norm>
0

>  <SCORE.SYSTEM>
0

>  <SCORE.SYSTEM.CONST>
0

>  <SCORE.SYSTEM.DIHEDRAL>
0

>  <SCORE.SYSTEM.norm>
0

>  <SCORE.heavy>
24

>  <SCORE.norm>
-1.14852

$$$$
design_9
 OpenBabel05252019093D

 26 29  0  0  0  0  0  0  0  0999 V2000
   44.8902  -39.0386   -1.4272 C   0  0  0  0  0  0  0  0  0  0  0  0
   43.9494  -39.5142   -0.3440 C   0  0  0  0  0  0  0  0  0  0  0  0
   43.1029  -38.8079    0.3783 N   0  0  0  0  0  0  0  0  0  0  0  0
   42.3686  -39.3972    1.2724 C   0  0  0  0  0  0  0  0  0  0  0  0
   41.4010  -38.6253    2.1058 C   0  0  0  0  0  0  0  0  0  0  0  0
   40.8019  -37.4742    1.6454 C   0  0  0  0  0  0  0  0  0  0  0  0
   39.9187  -36.7789    2.4201 C   0  0  0  0  0  0  0  0  0  0  0  0
   39.5818  -37.1867    3.6913 C   0  0  0  0  0  0  0  0  0  0  0  0
   40.1804  -38.3526    4.1739 C   0  0  0  0  0  0  0  0  0  0  0  0
   39.8837  -38.8361    5.5000 C   0  0  0  0  0  0  0  0  0  0  0  0
   40.7224  -38.5747    6.3989 O   0  0  0  0  0  0  0  0  0  0  0  0
   38.7244  -39.5566    5.7730 N   0  0  0  0  0  0  0  0  0  0  0  0
   38.3217  -40.0883    7.0602 C   0  0  0  0  0  0  0  0  0  0  0  0
   37.6265  -41.3924    6.8412 C   0  0  1  0  0  0  0  0  0  0  0  0
   36.2836  -41.2623    6.2025 C   0  0  0  0  0  0  0  0  0  0  0  0
   35.6651  -42.5356    6.2422 O   0  0  0  0  0  0  0  0  0  0  0  0
   36.4577  -43.6217    5.8261 C   0  0  0  0  0  0  0  0  0  0  0  0
   35.8418  -44.8455    5.5550 C   0  0  0  0  0  0  0  0  0  0  0  0
   36.6213  -45.8867    5.1534 C   0  0  0  0  0  0  0  0  0  0  0  0
   37.9863  -45.7639    5.0099 C   0  0  0  0  0  0  0  0  0  0  0  0
   38.5842  -44.5531    5.2796 C   0  0  0  0  0  0  0  0  0  0  0  0
   37.8218  -43.4713    5.6906 C   0  0  0  0  0  0  0  0  0  0  0  0
   38.4057  -42.2349    5.9696 O   0  0  0  0  0  0  0  0  0  0  0  0
   41.0639  -39.0322    3.3767 C   0  0  0  0  0  0  0  0  0  0  0  0
   42.5174  -40.7527    1.4191 C   0  0  0  0  0  0  0  0  0  0  0  0
   43.7191  -41.0963    0.2470 S   0  0  0  0  0  0  0  0  0  0  0  0
  1  2  1  0  0  0  0
  2  3  2  0  0  0  0
  3  4  1  0  0  0  0
  4  5  1  0  0  0  0
  4 25  2  0  0  0  0
  5  6  2  0  0  0  0
  6  7  1  0  0  0  0
  7  8  2  0  0  0  0
  8  9  1  0  0  0  0
  9 10  1  0  0  0  0
  9 24  2  0  0  0  0
 10 11  2  0  0  0  0
 10 12  1  0  0  0  0
 12 13  1  0  0  0  0
 14 13  1  6  0  0  0
 14 15  1  0  0  0  0
 15 16  1  0  0  0  0
 16 17  1  0  0  0  0
 17 18  2  0  0  0  0
 18 19  1  0  0  0  0
 19 20  2  0  0  0  0
 20 21  1  0  0  0  0
 21 22  2  0  0  0  0
 22 23  1  0  0  0  0
 22 17  1  0  0  0  0
 23 14  1  0  0  0  0
 24  5  1  0  0  0  0
 25 26  1  0  0  0  0
 26  2  1  0  0  0  0
M  END
>  <CHROM.1>
28.97447349,-99.74620319,-144.58610375,-70.34739279,39.88832074,-40.73614725
3.76126661,-0.29457932,-0.80163376,-2.89360709

>  <Name>
design_9

>  <RI>
0

>  <Rbt.Current_Directory>
/home/ziqiaoxu/icml18-jtnn/VAEdesign

>  <Rbt.Executable>
rbdock ($Id: //depot/dev/client3/rdock/2013.1/src/exe/rbdock.cxx#4 $)

>  <Rbt.Library>
libRbt.so (2013.1, Build901 2013/11/27)

>  <Rbt.Parameter_File>
/export/apps/rDock/src/rDock_2013.1_src//data/scripts/dock.prm

>  <Rbt.Receptor>
/home/ziqiaoxu/icml18-jtnn/VAEdesign/targets/RdRp-SARS-CoV-2/pocket_docking.prm

>  <SCORE>
-12.8106

>  <SCORE.INTER>
-19.0582

>  <SCORE.INTER.CONST>
1

>  <SCORE.INTER.POLAR>
-0.8645

>  <SCORE.INTER.REPUL>
0

>  <SCORE.INTER.ROT>
4

>  <SCORE.INTER.VDW>
-25.5189

>  <SCORE.INTER.norm>
-0.733008

>  <SCORE.INTRA>
6.24755

>  <SCORE.INTRA.DIHEDRAL>
13.9894

>  <SCORE.INTRA.DIHEDRAL.0>
2.99445

>  <SCORE.INTRA.POLAR>
0

>  <SCORE.INTRA.POLAR.0>
0

>  <SCORE.INTRA.REPUL>
0

>  <SCORE.INTRA.REPUL.0>
0

>  <SCORE.INTRA.VDW>
-0.747159

>  <SCORE.INTRA.VDW.0>
-0.423847

>  <SCORE.INTRA.norm>
0.24029

>  <SCORE.RESTR>
0

>  <SCORE.RESTR.CAVITY>
0

>  <SCORE.RESTR.norm>
0

>  <SCORE.SYSTEM>
0

>  <SCORE.SYSTEM.CONST>
0

>  <SCORE.SYSTEM.DIHEDRAL>
0

>  <SCORE.SYSTEM.norm>
0

>  <SCORE.heavy>
26

>  <SCORE.norm>
-0.492717

$$$$
design_19
 OpenBabel05252019093D

 24 26  0  0  0  0  0  0  0  0999 V2000
   46.6924  -45.0504    3.9676 C   0  0  0  0  0  0  0  0  0  0  0  0
   45.9611  -44.9252    5.2470 C   0  0  0  0  0  0  0  0  0  0  0  0
   44.7102  -45.4683    5.4421 C   0  0  0  0  0  0  0  0  0  0  0  0
   44.0247  -45.3459    6.6547 C   0  0  0  0  0  0  0  0  0  0  0  0
   44.6107  -44.6704    7.6715 C   0  0  0  0  0  0  0  0  0  0  0  0
   43.9413  -44.5069    8.9711 C   0  0  0  0  0  0  0  0  0  0  0  0
   42.7111  -44.7473    9.3375 N   0  0  0  0  0  0  0  0  0  0  0  0
   42.3278  -44.5253   10.5617 C   0  0  0  0  0  0  0  0  0  0  0  0
   40.9042  -44.7996   10.9971 C   0  0  0  0  0  0  0  0  0  0  0  0
   40.0655  -45.0898    9.7996 C   0  0  0  0  0  0  0  0  0  0  0  0
   39.5290  -44.1222    9.2416 O   0  0  0  0  0  0  0  0  0  0  0  0
   39.9080  -46.4117    9.3461 N   0  0  0  0  0  0  0  0  0  0  0  0
   39.1540  -46.8036    8.2337 C   0  0  0  0  0  0  0  0  0  0  0  0
   39.3875  -48.0676    7.7095 C   0  0  0  0  0  0  0  0  0  0  0  0
   38.7290  -48.5442    6.6205 C   0  0  0  0  0  0  0  0  0  0  0  0
   37.7808  -47.7727    5.9786 C   0  0  0  0  0  0  0  0  0  0  0  0
   37.5172  -46.5248    6.4565 C   0  0  0  0  0  0  0  0  0  0  0  0
   36.5397  -45.6996    5.8138 C   0  0  0  0  0  0  0  0  0  0  0  0
   35.7490  -45.0159    5.2895 N   0  0  0  0  0  0  0  0  0  0  0  0
   38.2096  -46.0599    7.5777 C   0  0  0  0  0  0  0  0  0  0  0  0
   43.2745  -44.0324   11.4312 C   0  0  0  0  0  0  0  0  0  0  0  0
   44.6459  -43.9250   10.4223 S   0  0  0  0  0  0  0  0  0  0  0  0
   45.8559  -44.1204    7.5020 C   0  0  0  0  0  0  0  0  0  0  0  0
   46.5452  -44.2400    6.2918 C   0  0  0  0  0  0  0  0  0  0  0  0
  1  2  1  0  0  0  0
  2  3  2  0  0  0  0
  3  4  1  0  0  0  0
  4  5  2  0  0  0  0
  5  6  1  0  0  0  0
  5 23  1  0  0  0  0
  6  7  2  0  0  0  0
  7  8  1  0  0  0  0
  8  9  1  0  0  0  0
  8 21  2  0  0  0  0
  9 10  1  0  0  0  0
 10 11  2  0  0  0  0
 10 12  1  0  0  0  0
 12 13  1  0  0  0  0
 13 14  2  0  0  0  0
 14 15  1  0  0  0  0
 15 16  2  0  0  0  0
 16 17  1  0  0  0  0
 17 18  1  0  0  0  0
 17 20  2  0  0  0  0
 18 19  3  0  0  0  0
 20 13  1  0  0  0  0
 21 22  1  0  0  0  0
 22  6  1  0  0  0  0
 23 24  2  0  0  0  0
 24  2  1  0  0  0  0
M  END
>  <CHROM.1>
-11.29165692,-9.94619430,-88.97760142,162.85925923,41.78423466,-45.34103914
7.93133517,-0.13859859,-0.22901588,-1.82938692

>  <Name>
design_19

>  <RI>
0

>  <Rbt.Current_Directory>
/home/ziqiaoxu/icml18-jtnn/VAEdesign

>  <Rbt.Executable>
rbdock ($Id: //depot/dev/client3/rdock/2013.1/src/exe/rbdock.cxx#4 $)

>  <Rbt.Library>
libRbt.so (2013.1, Build901 2013/11/27)

>  <Rbt.Parameter_File>
/export/apps/rDock/src/rDock_2013.1_src//data/scripts/dock.prm

>  <Rbt.Receptor>
/home/ziqiaoxu/icml18-jtnn/VAEdesign/targets/RdRp-SARS-CoV-2/pocket_docking.prm

>  <SCORE>
-19.415

>  <SCORE.INTER>
-19.5158

>  <SCORE.INTER.CONST>
1

>  <SCORE.INTER.POLAR>
-1

>  <SCORE.INTER.REPUL>
0

>  <SCORE.INTER.ROT>
4

>  <SCORE.INTER.VDW>
-25.5158

>  <SCORE.INTER.norm>
-0.813159

>  <SCORE.INTRA>
0.100859

>  <SCORE.INTRA.DIHEDRAL>
1.43165

>  <SCORE.INTRA.DIHEDRAL.0>
3.93711

>  <SCORE.INTRA.POLAR>
0

>  <SCORE.INTRA.POLAR.0>
0

>  <SCORE.INTRA.REPUL>
0

>  <SCORE.INTRA.REPUL.0>
0

>  <SCORE.INTRA.VDW>
-0.614967

>  <SCORE.INTRA.VDW.0>
-0.760083

>  <SCORE.INTRA.norm>
0.00420247

>  <SCORE.RESTR>
0

>  <SCORE.RESTR.CAVITY>
0

>  <SCORE.RESTR.norm>
0

>  <SCORE.SYSTEM>
0

>  <SCORE.SYSTEM.CONST>
0

>  <SCORE.SYSTEM.DIHEDRAL>
0

>  <SCORE.SYSTEM.norm>
0

>  <SCORE.heavy>
24

>  <SCORE.norm>
-0.808957

$$$$
design_0
 OpenBabel05252019093D

 25 26  0  0  0  0  0  0  0  0999 V2000
   41.3977  -44.1624   10.4892 C   0  0  0  0  0  0  0  0  0  0  0  0
   41.2581  -45.2891    9.6068 N   0  0  0  0  0  0  0  0  0  0  0  0
   40.1205  -46.1518    9.7380 C   0  0  0  0  0  0  0  0  0  0  0  0
   39.4376  -46.4878    8.4920 C   0  0  0  0  0  0  0  0  0  0  0  0
   39.4251  -47.7781    7.9666 C   0  0  0  0  0  0  0  0  0  0  0  0
   38.7701  -48.0650    6.7914 C   0  0  0  0  0  0  0  0  0  0  0  0
   38.1109  -47.0832    6.1062 C   0  0  0  0  0  0  0  0  0  0  0  0
   38.0980  -45.7974    6.5889 C   0  0  0  0  0  0  0  0  0  0  0  0
   38.7615  -45.5330    7.7690 C   0  0  0  0  0  0  0  0  0  0  0  0
   42.2309  -45.5480    8.6213 C   0  0  0  0  0  0  0  0  0  0  0  0
   42.1336  -46.5327    7.8262 O   0  0  0  0  0  0  0  0  0  0  0  0
   43.3899  -44.6175    8.5427 C   0  0  0  0  0  0  0  0  0  0  0  0
   44.4416  -45.1112    7.7196 N   0  0  0  0  0  0  0  0  0  0  0  0
   44.2183  -45.1949    6.2979 C   0  0  0  0  0  0  0  0  0  0  0  0
   43.0774  -44.8120    5.8987 O   0  0  0  0  0  0  0  0  0  0  0  0
   45.2514  -45.6765    5.5165 N   0  0  0  0  0  0  0  0  0  0  0  0
   45.2384  -45.8447    4.1222 C   0  0  0  0  0  0  0  0  0  0  0  0
   46.2837  -46.3153    3.3699 C   0  0  0  0  0  0  0  0  0  0  0  0
   46.1778  -46.4637    1.9790 C   0  0  0  0  0  0  0  0  0  0  0  0
   45.0304  -46.1487    1.2929 C   0  0  0  0  0  0  0  0  0  0  0  0
   44.9255  -46.3040   -0.1472 C   0  0  0  0  0  0  0  0  0  0  0  0
   43.7404  -45.9035   -0.8183 N   0  0  0  0  0  0  0  0  0  0  0  0
   45.8726  -46.7900   -0.8110 O   0  0  0  0  0  0  0  0  0  0  0  0
   43.9734  -45.6750    2.0340 C   0  0  0  0  0  0  0  0  0  0  0  0
   44.0728  -45.5293    3.3896 C   0  0  0  0  0  0  0  0  0  0  0  0
  1  2  1  0  0  0  0
  2  3  1  0  0  0  0
  2 10  1  0  0  0  0
  3  4  1  0  0  0  0
  4  5  2  0  0  0  0
  5  6  1  0  0  0  0
  6  7  2  0  0  0  0
  7  8  1  0  0  0  0
  8  9  2  0  0  0  0
  9  4  1  0  0  0  0
 10 11  2  0  0  0  0
 10 12  1  0  0  0  0
 12 13  1  0  0  0  0
 13 14  1  0  0  0  0
 14 15  2  0  0  0  0
 14 16  1  0  0  0  0
 16 17  1  0  0  0  0
 17 18  2  0  0  0  0
 18 19  1  0  0  0  0
 19 20  2  0  0  0  0
 20 21  1  0  0  0  0
 20 24  1  0  0  0  0
 21 22  1  0  0  0  0
 21 23  2  0  0  0  0
 24 25  2  0  0  0  0
 25 17  1  0  0  0  0
M  END
>  <CHROM.1>
133.14757617,113.02912345,167.70524903,69.03046285,179.43303928,-176.94246188
42.65228574,-45.93367148,5.53669842,-2.17185446,-0.25166497,-1.76868373

>  <Name>
design_0

>  <RI>
0

>  <Rbt.Current_Directory>
/home/ziqiaoxu/icml18-jtnn/VAEdesign

>  <Rbt.Executable>
rbdock ($Id: //depot/dev/client3/rdock/2013.1/src/exe/rbdock.cxx#4 $)

>  <Rbt.Library>
libRbt.so (2013.1, Build901 2013/11/27)

>  <Rbt.Parameter_File>
/export/apps/rDock/src/rDock_2013.1_src//data/scripts/dock.prm

>  <Rbt.Receptor>
/home/ziqiaoxu/icml18-jtnn/VAEdesign/targets/RdRp-SARS-CoV-2/pocket_docking.prm

>  <SCORE>
-21.2653

>  <SCORE.INTER>
-21.2897

>  <SCORE.INTER.CONST>
1

>  <SCORE.INTER.POLAR>
-2.11024

>  <SCORE.INTER.REPUL>
0

>  <SCORE.INTER.ROT>
6

>  <SCORE.INTER.VDW>
-25.5149

>  <SCORE.INTER.norm>
-0.851587

>  <SCORE.INTRA>
0.0244229

>  <SCORE.INTRA.DIHEDRAL>
-0.354584

>  <SCORE.INTRA.DIHEDRAL.0>
4.84779

>  <SCORE.INTRA.POLAR>
0

>  <SCORE.INTRA.POLAR.0>
0

>  <SCORE.INTRA.REPUL>
0

>  <SCORE.INTRA.REPUL.0>
0

>  <SCORE.INTRA.VDW>
0.201715

>  <SCORE.INTRA.VDW.0>
-1.82148

>  <SCORE.INTRA.norm>
0.000976914

>  <SCORE.RESTR>
0

>  <SCORE.RESTR.CAVITY>
0

>  <SCORE.RESTR.norm>
0

>  <SCORE.SYSTEM>
0

>  <SCORE.SYSTEM.CONST>
0

>  <SCORE.SYSTEM.DIHEDRAL>
0

>  <SCORE.SYSTEM.norm>
0

>  <SCORE.heavy>
25

>  <SCORE.norm>
-0.85061

$$$$
design_11
 OpenBabel05252019093D

 26 27  0  0  0  0  0  0  0  0999 V2000
   40.3950  -44.1721   10.0658 C   0  0  0  0  0  0  0  0  0  0  0  0
   40.6456  -45.3897    9.3478 N   0  0  0  0  0  0  0  0  0  0  0  0
   39.7521  -46.5125    9.5087 C   0  0  0  0  0  0  0  0  0  0  0  0
   39.1002  -46.8507    8.2183 C   0  0  0  0  0  0  0  0  0  0  0  0
   39.3745  -47.9832    7.4862 C   0  0  0  0  0  0  0  0  0  0  0  0
   38.7432  -48.2604    6.2929 C   0  0  0  0  0  0  0  0  0  0  0  0
   37.8060  -47.4086    5.7804 C   0  0  0  0  0  0  0  0  0  0  0  0
   37.4958  -46.2514    6.4849 C   0  0  0  0  0  0  0  0  0  0  0  0
   36.5111  -45.3229    5.9763 C   0  0  0  0  0  0  0  0  0  0  0  0
   35.7430  -44.5704    5.5499 N   0  0  0  0  0  0  0  0  0  0  0  0
   38.1355  -45.9990    7.6660 C   0  0  0  0  0  0  0  0  0  0  0  0
   41.7850  -45.4974    8.5198 C   0  0  0  0  0  0  0  0  0  0  0  0
   41.9885  -46.5183    7.8469 O   0  0  0  0  0  0  0  0  0  0  0  0
   42.7345  -44.3642    8.4763 C   0  0  0  0  0  0  0  0  0  0  0  0
   44.0501  -44.7313    8.8925 N   0  0  0  0  0  0  0  0  0  0  0  0
   44.7310  -44.1583    9.9824 C   0  0  0  0  0  0  0  0  0  0  0  0
   44.1983  -43.2680   10.6743 O   0  0  0  0  0  0  0  0  0  0  0  0
   46.0386  -44.5707   10.3214 N   0  0  0  0  0  0  0  0  0  0  0  0
   46.7593  -44.0183   11.4429 C   0  0  0  0  0  0  0  0  0  0  0  0
   45.9272  -44.0539   12.6849 C   0  0  0  0  0  0  0  0  0  0  0  0
   45.6533  -42.9445   13.4399 C   0  0  0  0  0  0  0  0  0  0  0  0
   44.8620  -42.9984   14.5854 C   0  0  0  0  0  0  0  0  0  0  0  0
   44.3434  -44.1987   14.9643 C   0  0  0  0  0  0  0  0  0  0  0  0
   43.5583  -44.2404   16.0930 F   0  0  0  0  0  0  0  0  0  0  0  0
   44.6043  -45.3349   14.2222 C   0  0  0  0  0  0  0  0  0  0  0  0
   45.3956  -45.2592   13.0835 C   0  0  0  0  0  0  0  0  0  0  0  0
  1  2  1  0  0  0  0
  2  3  1  0  0  0  0
  2 12  1  0  0  0  0
  3  4  1  0  0  0  0
  4  5  2  0  0  0  0
  5  6  1  0  0  0  0
  6  7  2  0  0  0  0
  7  8  1  0  0  0  0
  8  9  1  0  0  0  0
  8 11  2  0  0  0  0
  9 10  3  0  0  0  0
 11  4  1  0  0  0  0
 12 13  2  0  0  0  0
 12 14  1  0  0  0  0
 14 15  1  0  0  0  0
 15 16  1  0  0  0  0
 16 17  2  0  0  0  0
 16 18  1  0  0  0  0
 18 19  1  0  0  0  0
 19 20  1  0  0  0  0
 20 21  2  0  0  0  0
 21 22  1  0  0  0  0
 22 23  2  0  0  0  0
 23 24  1  0  0  0  0
 23 25  1  0  0  0  0
 25 26  2  0  0  0  0
 26 20  1  0  0  0  0
M  END
>  <CHROM.1>
117.60837806,109.57981202,120.20312984,-120.09633406,50.45138137,-124.49215062
42.01096085,-45.15602893,9.98826617,2.37475553,-0.15929229,-1.74373374

>  <Name>
design_11

>  <RI>
0

>  <Rbt.Current_Directory>
/home/ziqiaoxu/icml18-jtnn/VAEdesign

>  <Rbt.Executable>
rbdock ($Id: //depot/dev/client3/rdock/2013.1/src/exe/rbdock.cxx#4 $)

>  <Rbt.Library>
libRbt.so (2013.1, Build901 2013/11/27)

>  <Rbt.Parameter_File>
/export/apps/rDock/src/rDock_2013.1_src//data/scripts/dock.prm

>  <Rbt.Receptor>
/home/ziqiaoxu/icml18-jtnn/VAEdesign/targets/RdRp-SARS-CoV-2/pocket_docking.prm

>  <SCORE>
-18.4337

>  <SCORE.INTER>
-18.0814

>  <SCORE.INTER.CONST>
1

>  <SCORE.INTER.POLAR>
-1.18359

>  <SCORE.INTER.REPUL>
0.0111196

>  <SCORE.INTER.ROT>
6

>  <SCORE.INTER.VDW>
-25.5127

>  <SCORE.INTER.norm>
-0.695437

>  <SCORE.INTRA>
-0.352359

>  <SCORE.INTRA.DIHEDRAL>
0.0401465

>  <SCORE.INTRA.DIHEDRAL.0>
6.34535

>  <SCORE.INTRA.POLAR>
0

>  <SCORE.INTRA.POLAR.0>
0

>  <SCORE.INTRA.REPUL>
0

>  <SCORE.INTRA.REPUL.0>
0

>  <SCORE.INTRA.VDW>
-0.372432

>  <SCORE.INTRA.VDW.0>
-2.32206

>  <SCORE.INTRA.norm>
-0.0135523

>  <SCORE.RESTR>
0

>  <SCORE.RESTR.CAVITY>
0

>  <SCORE.RESTR.norm>
0

>  <SCORE.SYSTEM>
0

>  <SCORE.SYSTEM.CONST>
0

>  <SCORE.SYSTEM.DIHEDRAL>
0

>  <SCORE.SYSTEM.norm>
0

>  <SCORE.heavy>
26

>  <SCORE.norm>
-0.708989

$$$$
design_7
 OpenBabel05252019093D

 25 28  0  0  0  0  0  0  0  0999 V2000
   40.4193  -40.2323    9.6675 O   0  0  0  0  0  0  0  0  0  0  0  0
   40.2042  -40.6518    8.5138 C   0  0  0  0  0  0  0  0  0  0  0  0
   40.0237  -42.0327    8.2649 N   0  0  0  0  0  0  0  0  0  0  0  0
   40.0932  -42.9339    9.3617 C   0  0  0  0  0  0  0  0  0  0  0  0
   40.2176  -44.3619    9.0024 C   0  0  0  0  0  0  0  0  0  0  0  0
   39.8125  -45.3811    9.9906 C   0  0  0  0  0  0  0  0  0  0  0  0
   39.9891  -46.7616    9.6820 N   0  0  0  0  0  0  0  0  0  0  0  0
   39.9056  -47.2607    8.3269 C   0  0  0  0  0  0  0  0  0  0  0  0
   39.1948  -48.3492    8.0055 N   0  0  0  0  0  0  0  0  0  0  0  0
   39.1675  -48.7515    6.7037 C   0  0  0  0  0  0  0  0  0  0  0  0
   39.8738  -48.0236    5.7578 C   0  0  0  0  0  0  0  0  0  0  0  0
   40.5983  -46.9083    6.1062 C   0  0  0  0  0  0  0  0  0  0  0  0
   41.3431  -46.1469    5.0863 C   0  0  0  0  0  0  0  0  0  0  0  0
   41.8099  -44.7557    5.3997 C   0  0  0  0  0  0  0  0  0  0  0  0
   40.6473  -44.9538    4.5169 C   0  0  0  0  0  0  0  0  0  0  0  0
   40.6015  -46.5430    7.3964 N   0  0  0  0  0  0  0  0  0  0  0  0
   40.1316  -39.7319    7.3820 C   0  0  0  0  0  0  0  0  0  0  0  0
   40.1080  -40.0758    6.0283 C   0  0  0  0  0  0  0  0  0  0  0  0
   40.0361  -38.9166    5.2928 C   0  0  0  0  0  0  0  0  0  0  0  0
   39.9866  -38.6706    3.9340 C   0  0  0  0  0  0  0  0  0  0  0  0
   39.9156  -37.3638    3.4570 C   0  0  0  0  0  0  0  0  0  0  0  0
   39.8956  -36.3195    4.3605 C   0  0  0  0  0  0  0  0  0  0  0  0
   39.9443  -36.5504    5.7096 C   0  0  0  0  0  0  0  0  0  0  0  0
   40.0149  -37.8506    6.1850 C   0  0  0  0  0  0  0  0  0  0  0  0
   40.0737  -38.3919    7.4136 N   0  0  0  0  0  0  0  0  0  0  0  0
  1  2  2  0  0  0  0
  2  3  1  0  0  0  0
  2 17  1  0  0  0  0
  3  4  1  0  0  0  0
  4  5  1  0  0  0  0
  5  6  1  0  0  0  0
  6  7  1  0  0  0  0
  7  8  1  0  0  0  0
  8  9  2  0  0  0  0
  9 10  1  0  0  0  0
 10 11  2  0  0  0  0
 11 12  1  0  0  0  0
 12 13  1  0  0  0  0
 12 16  2  0  0  0  0
 13 14  1  0  0  0  0
 14 15  1  0  0  0  0
 15 13  1  0  0  0  0
 16  8  1  0  0  0  0
 17 18  2  0  0  0  0
 18 19  1  0  0  0  0
 19 20  2  0  0  0  0
 20 21  1  0  0  0  0
 21 22  2  0  0  0  0
 22 23  1  0  0  0  0
 23 24  2  0  0  0  0
 24 25  1  0  0  0  0
 24 19  1  0  0  0  0
 25 17  1  0  0  0  0
M  END
>  <CHROM.1>
-166.08455090,-158.05222987,-176.92686898,-31.21168902,-133.11957163,163.51972494
169.20559627,40.16433059,-42.75962257,6.93207465,1.60753264,1.49241996,-0.22974451

>  <Name>
design_7

>  <RI>
0

>  <Rbt.Current_Directory>
/home/ziqiaoxu/icml18-jtnn/VAEdesign

>  <Rbt.Executable>
rbdock ($Id: //depot/dev/client3/rdock/2013.1/src/exe/rbdock.cxx#4 $)

>  <Rbt.Library>
libRbt.so (2013.1, Build901 2013/11/27)

>  <Rbt.Parameter_File>
/export/apps/rDock/src/rDock_2013.1_src//data/scripts/dock.prm

>  <Rbt.Receptor>
/home/ziqiaoxu/icml18-jtnn/VAEdesign/targets/RdRp-SARS-CoV-2/pocket_docking.prm

>  <SCORE>
-16.5631

>  <SCORE.INTER>
-20.4907

>  <SCORE.INTER.CONST>
1

>  <SCORE.INTER.POLAR>
-2.17009

>  <SCORE.INTER.REPUL>
0

>  <SCORE.INTER.ROT>
7

>  <SCORE.INTER.VDW>
-25.5124

>  <SCORE.INTER.norm>
-0.819628

>  <SCORE.INTRA>
3.89747

>  <SCORE.INTRA.DIHEDRAL>
8.76133

>  <SCORE.INTRA.DIHEDRAL.0>
4.42211

>  <SCORE.INTRA.POLAR>
0

>  <SCORE.INTRA.POLAR.0>
0

>  <SCORE.INTRA.REPUL>
0

>  <SCORE.INTRA.REPUL.0>
0

>  <SCORE.INTRA.VDW>
-0.483198

>  <SCORE.INTRA.VDW.0>
-0.610856

>  <SCORE.INTRA.norm>
0.155899

>  <SCORE.RESTR>
0.0301088

>  <SCORE.RESTR.CAVITY>
0.0301088

>  <SCORE.RESTR.norm>
0.00120435

>  <SCORE.SYSTEM>
0

>  <SCORE.SYSTEM.CONST>
0

>  <SCORE.SYSTEM.DIHEDRAL>
0

>  <SCORE.SYSTEM.norm>
0

>  <SCORE.heavy>
25

>  <SCORE.norm>
-0.662525

$$$$
design_4
 OpenBabel05252019093D

 24 26  0  0  0  0  0  0  0  0999 V2000
   39.4837  -47.8689    6.0272 C   0  0  0  0  0  0  0  0  0  0  0  0
   39.6094  -46.9118    7.1492 C   0  0  0  0  0  0  0  0  0  0  0  0
   39.2115  -47.3545    8.5055 C   0  0  0  0  0  0  0  0  0  0  0  0
   39.4430  -46.4858    9.5923 N   0  0  0  0  0  0  0  0  0  0  0  0
   40.6105  -45.6704    9.6894 C   0  0  0  0  0  0  0  0  0  0  0  0
   41.6108  -45.5647    8.8228 N   0  0  0  0  0  0  0  0  0  0  0  0
   42.6165  -44.7986    9.0880 C   0  0  0  0  0  0  0  0  0  0  0  0
   43.7618  -44.6505    8.1424 C   0  0  0  0  0  0  0  0  0  0  0  0
   44.9855  -44.2025    8.5624 C   0  0  0  0  0  0  0  0  0  0  0  0
   46.0248  -44.0727    7.6819 C   0  0  0  0  0  0  0  0  0  0  0  0
   45.8443  -44.4012    6.3248 C   0  0  0  0  0  0  0  0  0  0  0  0
   44.6394  -44.8510    5.8678 C   0  0  0  0  0  0  0  0  0  0  0  0
   44.3971  -45.1982    4.5072 N   0  0  0  0  0  0  0  0  0  0  0  0
   45.2934  -45.3214    3.4675 C   0  0  0  0  0  0  0  0  0  0  0  0
   46.5222  -45.1340    3.5650 O   0  0  0  0  0  0  0  0  0  0  0  0
   44.8098  -45.7007    2.1183 C   0  0  0  0  0  0  0  0  0  0  0  0
   43.4828  -45.6567    1.7700 C   0  0  0  0  0  0  0  0  0  0  0  0
   43.0478  -46.0045    0.5064 C   0  0  0  0  0  0  0  0  0  0  0  0
   43.9907  -46.4034   -0.4113 C   0  0  0  0  0  0  0  0  0  0  0  0
   45.3332  -46.4641   -0.1094 C   0  0  0  0  0  0  0  0  0  0  0  0
   45.7135  -46.1106    1.1514 C   0  0  0  0  0  0  0  0  0  0  0  0
   43.6285  -44.9584    6.8183 C   0  0  0  0  0  0  0  0  0  0  0  0
   42.6008  -44.1162   10.2799 C   0  0  0  0  0  0  0  0  0  0  0  0
   41.1151  -44.6343   10.9453 S   0  0  0  0  0  0  0  0  0  0  0  0
  1  2  1  0  0  0  0
  2  3  1  0  0  0  0
  3  4  1  0  0  0  0
  4  5  1  0  0  0  0
  5  6  2  0  0  0  0
  6  7  1  0  0  0  0
  7  8  1  0  0  0  0
  7 23  2  0  0  0  0
  8  9  2  0  0  0  0
  9 10  1  0  0  0  0
 10 11  2  0  0  0  0
 11 12  1  0  0  0  0
 12 13  1  0  0  0  0
 12 22  2  0  0  0  0
 13 14  1  0  0  0  0
 14 15  2  0  0  0  0
 14 16  1  0  0  0  0
 16 17  2  0  0  0  0
 17 18  1  0  0  0  0
 18 19  2  0  0  0  0
 19 20  1  0  0  0  0
 20 21  2  0  0  0  0
 21 16  1  0  0  0  0
 22  8  1  0  0  0  0
 23 24  1  0  0  0  0
 24  5  1  0  0  0  0
M  END
>  <CHROM.1>
174.39724595,-37.77285073,1.45995284,-159.22237377,9.04959453,14.60748405
43.07200036,-45.50303726,6.13186805,2.05375239,0.42190090,1.31126603

>  <Name>
design_4

>  <RI>
0

>  <Rbt.Current_Directory>
/home/ziqiaoxu/icml18-jtnn/VAEdesign

>  <Rbt.Executable>
rbdock ($Id: //depot/dev/client3/rdock/2013.1/src/exe/rbdock.cxx#4 $)

>  <Rbt.Library>
libRbt.so (2013.1, Build901 2013/11/27)

>  <Rbt.Parameter_File>
/export/apps/rDock/src/rDock_2013.1_src//data/scripts/dock.prm

>  <Rbt.Receptor>
/home/ziqiaoxu/icml18-jtnn/VAEdesign/targets/RdRp-SARS-CoV-2/pocket_docking.prm

>  <SCORE>
-16.8765

>  <SCORE.INTER>
-17.5797

>  <SCORE.INTER.CONST>
1

>  <SCORE.INTER.POLAR>
-1.0198

>  <SCORE.INTER.REPUL>
0

>  <SCORE.INTER.ROT>
6

>  <SCORE.INTER.VDW>
-25.5124

>  <SCORE.INTER.norm>
-0.732489

>  <SCORE.INTRA>
0.703207

>  <SCORE.INTRA.DIHEDRAL>
0.860564

>  <SCORE.INTRA.DIHEDRAL.0>
4.64109

>  <SCORE.INTRA.POLAR>
0

>  <SCORE.INTRA.POLAR.0>
0

>  <SCORE.INTRA.REPUL>
0

>  <SCORE.INTRA.REPUL.0>
0

>  <SCORE.INTRA.VDW>
0.272925

>  <SCORE.INTRA.VDW.0>
-0.793145

>  <SCORE.INTRA.norm>
0.0293003

>  <SCORE.RESTR>
0

>  <SCORE.RESTR.CAVITY>
0

>  <SCORE.RESTR.norm>
0

>  <SCORE.SYSTEM>
0

>  <SCORE.SYSTEM.CONST>
0

>  <SCORE.SYSTEM.DIHEDRAL>
0

>  <SCORE.SYSTEM.norm>
0

>  <SCORE.heavy>
24

>  <SCORE.norm>
-0.703188

$$$$
design_3
 OpenBabel05252019093D

 25 27  0  0  0  0  0  0  0  0999 V2000
   40.9595  -41.5584    8.2733 O   0  0  0  0  0  0  0  0  0  0  0  0
   40.3238  -40.9127    9.1219 C   0  0  0  0  0  0  0  0  0  0  0  0
   39.8279  -41.5309   10.2865 N   0  0  0  0  0  0  0  0  0  0  0  0
   40.0142  -42.9259   10.5471 C   0  0  0  0  0  0  0  0  0  0  0  0
   39.5977  -43.7429    9.3665 C   0  0  0  0  0  0  0  0  0  0  0  0
   39.8366  -45.2298    9.6747 C   0  0  0  0  0  0  0  0  0  0  0  0
   39.5736  -46.2885    8.2691 S   0  0  0  0  0  0  0  0  0  0  0  0
   38.3172  -45.6555    7.1931 C   0  0  0  0  0  0  0  0  0  0  0  0
   38.4644  -44.4044    6.5734 C   0  0  0  0  0  0  0  0  0  0  0  0
   37.5078  -43.9142    5.7189 C   0  0  0  0  0  0  0  0  0  0  0  0
   36.3667  -44.6255    5.4335 C   0  0  0  0  0  0  0  0  0  0  0  0
   36.2319  -45.8518    6.0462 C   0  0  0  0  0  0  0  0  0  0  0  0
   37.1828  -46.3546    6.9039 C   0  0  0  0  0  0  0  0  0  0  0  0
   40.0866  -39.5310    8.9280 N   0  0  0  0  0  0  0  0  0  0  0  0
   40.5940  -38.8653    7.7573 C   0  0  0  0  0  0  0  0  0  0  0  0
   39.5104  -38.6460    6.7376 C   0  0  0  0  0  0  0  0  0  0  0  0
   40.1884  -38.1078    5.4966 C   0  0  0  0  0  0  0  0  0  0  0  0
   41.2921  -38.5681    4.8945 N   0  0  0  0  0  0  0  0  0  0  0  0
   41.5673  -37.8122    3.8182 C   0  0  0  0  0  0  0  0  0  0  0  0
   42.5736  -37.8339    2.8458 C   0  0  0  0  0  0  0  0  0  0  0  0
   42.5645  -36.8808    1.8410 C   0  0  0  0  0  0  0  0  0  0  0  0
   41.6050  -35.9081    1.7556 C   0  0  0  0  0  0  0  0  0  0  0  0
   40.6112  -35.9045    2.7352 C   0  0  0  0  0  0  0  0  0  0  0  0
   40.5971  -36.8384    3.7425 C   0  0  0  0  0  0  0  0  0  0  0  0
   39.7756  -37.0489    4.7791 N   0  0  0  0  0  0  0  0  0  0  0  0
  1  2  2  0  0  0  0
  2  3  1  0  0  0  0
  2 14  1  0  0  0  0
  3  4  1  0  0  0  0
  4  5  1  0  0  0  0
  5  6  1  0  0  0  0
  6  7  1  0  0  0  0
  7  8  1  0  0  0  0
  8  9  2  0  0  0  0
  9 10  1  0  0  0  0
 10 11  2  0  0  0  0
 11 12  1  0  0  0  0
 12 13  2  0  0  0  0
 13  8  1  0  0  0  0
 14 15  1  0  0  0  0
 15 16  1  0  0  0  0
 16 17  1  0  0  0  0
 17 18  2  0  0  0  0
 18 19  1  0  0  0  0
 19 20  2  0  0  0  0
 20 21  1  0  0  0  0
 21 22  2  0  0  0  0
 22 23  1  0  0  0  0
 23 24  2  0  0  0  0
 24 25  1  0  0  0  0
 24 19  1  0  0  0  0
 25 17  1  0  0  0  0
M  END
>  <CHROM.1>
-50.60829372,178.96749988,-172.64954107,-31.87312993,60.89813340,102.35716880
-172.96039526,47.02733647,39.79999920,-41.27616428,6.53933250,-2.20983934
-1.10092885,-1.08877775

>  <Name>
design_3

>  <RI>
0

>  <Rbt.Current_Directory>
/home/ziqiaoxu/icml18-jtnn/VAEdesign

>  <Rbt.Executable>
rbdock ($Id: //depot/dev/client3/rdock/2013.1/src/exe/rbdock.cxx#4 $)

>  <Rbt.Library>
libRbt.so (2013.1, Build901 2013/11/27)

>  <Rbt.Parameter_File>
/export/apps/rDock/src/rDock_2013.1_src//data/scripts/dock.prm

>  <Rbt.Receptor>
/home/ziqiaoxu/icml18-jtnn/VAEdesign/targets/RdRp-SARS-CoV-2/pocket_docking.prm

>  <SCORE>
-19.4531

>  <SCORE.INTER>
-20.5532

>  <SCORE.INTER.CONST>
1

>  <SCORE.INTER.POLAR>
-2.60794

>  <SCORE.INTER.REPUL>
0.0851364

>  <SCORE.INTER.ROT>
8

>  <SCORE.INTER.VDW>
-25.5119

>  <SCORE.INTER.norm>
-0.822129

>  <SCORE.INTRA>
1.10015

>  <SCORE.INTRA.DIHEDRAL>
1.31087

>  <SCORE.INTRA.DIHEDRAL.0>
5.91047

>  <SCORE.INTRA.POLAR>
0

>  <SCORE.INTRA.POLAR.0>
0

>  <SCORE.INTRA.REPUL>
0

>  <SCORE.INTRA.REPUL.0>
0

>  <SCORE.INTRA.VDW>
0.444718

>  <SCORE.INTRA.VDW.0>
-0.920836

>  <SCORE.INTRA.norm>
0.0440061

>  <SCORE.RESTR>
0

>  <SCORE.RESTR.CAVITY>
0

>  <SCORE.RESTR.norm>
0

>  <SCORE.SYSTEM>
0

>  <SCORE.SYSTEM.CONST>
0

>  <SCORE.SYSTEM.DIHEDRAL>
0

>  <SCORE.SYSTEM.norm>
0

>  <SCORE.heavy>
25

>  <SCORE.norm>
-0.778123

$$$$
design_9
 OpenBabel05252019093D

 29 31  0  0  0  0  0  0  0  0999 V2000
   44.1616  -43.4598    2.6037 C   0  0  0  0  0  0  0  0  0  0  0  0
   43.0162  -44.1644    1.7565 C   0  0  1  0  0  0  0  0  0  0  0  0
   42.5914  -43.1427    0.8163 C   0  0  0  0  0  0  0  0  0  0  0  0
   41.8625  -42.0162    1.2110 N   0  0  0  0  0  0  0  0  0  0  0  0
   42.3450  -40.6983    1.4143 C   0  0  0  0  0  0  0  0  0  0  0  0
   43.5363  -40.4387    1.2101 O   0  0  0  0  0  0  0  0  0  0  0  0
   41.4602  -39.6942    1.8485 N   0  0  0  0  0  0  0  0  0  0  0  0
   41.7006  -38.3408    2.1146 C   0  0  0  0  0  0  0  0  0  0  0  0
   42.6439  -37.5492    1.5047 C   0  0  0  0  0  0  0  0  0  0  0  0
   42.8235  -36.1923    1.8304 C   0  0  0  0  0  0  0  0  0  0  0  0
   42.0265  -35.6262    2.7983 C   0  0  0  0  0  0  0  0  0  0  0  0
   41.0693  -36.3826    3.4343 C   0  0  0  0  0  0  0  0  0  0  0  0
   40.9339  -37.6894    3.0846 C   0  0  0  0  0  0  0  0  0  0  0  0
   39.8896  -38.4944    3.7848 C   0  0  0  0  0  0  0  0  0  0  0  0
   40.1736  -38.6144    5.2002 N   0  0  0  0  0  0  0  0  0  0  0  0
   40.7250  -39.8085    5.8488 C   0  0  0  0  0  0  0  0  0  0  0  0
   41.0654  -39.4220    7.2541 C   0  0  0  0  0  0  0  0  0  0  0  0
   40.3419  -38.1940    7.4978 N   0  0  0  0  0  0  0  0  0  0  0  0
   39.9966  -37.6673    6.2274 C   0  0  0  0  0  0  0  0  0  0  0  0
   39.5809  -36.4775    6.0761 O   0  0  0  0  0  0  0  0  0  0  0  0
   43.8038  -45.2624    1.0542 C   0  0  0  0  0  0  0  0  0  0  0  0
   43.3841  -45.6345   -0.2336 N   0  0  0  0  0  0  0  0  0  0  0  0
   44.7622  -45.7789    1.6227 O   0  0  0  0  0  0  0  0  0  0  0  0
   42.1578  -44.8184    2.7079 C   0  0  0  0  0  0  0  0  0  0  0  0
   40.7945  -44.5278    2.8252 C   0  0  0  0  0  0  0  0  0  0  0  0
   40.0469  -45.2174    3.7426 C   0  0  0  0  0  0  0  0  0  0  0  0
   40.5832  -46.1934    4.5624 C   0  0  0  0  0  0  0  0  0  0  0  0
   41.9282  -46.4566    4.4233 C   0  0  0  0  0  0  0  0  0  0  0  0
   42.7145  -45.8018    3.5293 C   0  0  0  0  0  0  0  0  0  0  0  0
  2  1  1  1  0  0  0
  2  3  1  0  0  0  0
  2 21  1  0  0  0  0
  2 24  1  0  0  0  0
  3  4  1  0  0  0  0
  4  5  1  0  0  0  0
  5  6  2  0  0  0  0
  5  7  1  0  0  0  0
  7  8  1  0  0  0  0
  8  9  2  0  0  0  0
  9 10  1  0  0  0  0
 10 11  2  0  0  0  0
 11 12  1  0  0  0  0
 12 13  2  0  0  0  0
 13 14  1  0  0  0  0
 13  8  1  0  0  0  0
 14 15  1  0  0  0  0
 15 16  1  0  0  0  0
 16 17  1  0  0  0  0
 17 18  1  0  0  0  0
 18 19  1  0  0  0  0
 19 20  2  0  0  0  0
 19 15  1  0  0  0  0
 21 22  1  0  0  0  0
 21 23  2  0  0  0  0
 24 25  2  0  0  0  0
 25 26  1  0  0  0  0
 26 27  2  0  0  0  0
 27 28  1  0  0  0  0
 28 29  2  0  0  0  0
 29 24  1  0  0  0  0
M  END
>  <CHROM.1>
-71.26166709,101.52215371,30.21537624,116.13829130,-103.16581127,-147.23238375
120.89541649,41.80968628,-41.16953012,3.16433537,-1.09390045,1.06912867,-0.13570778

>  <Name>
design_9

>  <RI>
0

>  <Rbt.Current_Directory>
/home/ziqiaoxu/icml18-jtnn/VAEdesign

>  <Rbt.Executable>
rbdock ($Id: //depot/dev/client3/rdock/2013.1/src/exe/rbdock.cxx#4 $)

>  <Rbt.Library>
libRbt.so (2013.1, Build901 2013/11/27)

>  <Rbt.Parameter_File>
/export/apps/rDock/src/rDock_2013.1_src//data/scripts/dock.prm

>  <Rbt.Receptor>
/home/ziqiaoxu/icml18-jtnn/VAEdesign/targets/RdRp-SARS-CoV-2/pocket_docking.prm

>  <SCORE>
-26.7349

>  <SCORE.INTER>
-26.7741

>  <SCORE.INTER.CONST>
1

>  <SCORE.INTER.POLAR>
-4.03221

>  <SCORE.INTER.REPUL>
0.00899819

>  <SCORE.INTER.ROT>
7

>  <SCORE.INTER.VDW>
-25.5096

>  <SCORE.INTER.norm>
-0.923245

>  <SCORE.INTRA>
0.0392032

>  <SCORE.INTRA.DIHEDRAL>
4.30534

>  <SCORE.INTRA.DIHEDRAL.0>
5.91648

>  <SCORE.INTRA.POLAR>
0

>  <SCORE.INTRA.POLAR.0>
0

>  <SCORE.INTRA.REPUL>
0

>  <SCORE.INTRA.REPUL.0>
0

>  <SCORE.INTRA.VDW>
-2.11347

>  <SCORE.INTRA.VDW.0>
5.32666

>  <SCORE.INTRA.norm>
0.00135184

>  <SCORE.RESTR>
0

>  <SCORE.RESTR.CAVITY>
0

>  <SCORE.RESTR.norm>
0

>  <SCORE.SYSTEM>
0

>  <SCORE.SYSTEM.CONST>
0

>  <SCORE.SYSTEM.DIHEDRAL>
0

>  <SCORE.SYSTEM.norm>
0

>  <SCORE.heavy>
29

>  <SCORE.norm>
-0.921893

$$$$
design_5
 OpenBabel05252019093D

 24 25  0  0  0  0  0  0  0  0999 V2000
   34.0859  -40.4889    6.2452 C   0  0  0  0  0  0  0  0  0  0  0  0
   35.3768  -41.2322    6.3016 C   0  0  0  0  0  0  0  0  0  0  0  0
   36.5182  -40.5067    6.5490 C   0  0  0  0  0  0  0  0  0  0  0  0
   37.7242  -41.1553    6.5910 C   0  0  0  0  0  0  0  0  0  0  0  0
   37.7810  -42.5271    6.3843 C   0  0  0  0  0  0  0  0  0  0  0  0
   36.6604  -43.2635    6.1389 C   0  0  0  0  0  0  0  0  0  0  0  0
   36.6508  -44.7157    5.8815 C   0  0  0  0  0  0  0  0  0  0  0  0
   35.5755  -45.1811    5.4745 O   0  0  0  0  0  0  0  0  0  0  0  0
   37.7863  -45.5017    6.0747 N   0  0  0  0  0  0  0  0  0  0  0  0
   38.0680  -46.8522    5.8899 C   0  0  0  0  0  0  0  0  0  0  0  0
   39.3488  -47.5091    6.1588 C   0  0  0  0  0  0  0  0  0  0  0  0
   39.3193  -48.9693    6.4882 C   0  0  0  0  0  0  0  0  0  0  0  0
   40.3955  -47.1637    5.1437 C   0  0  0  0  0  0  0  0  0  0  0  0
   39.8645  -46.8328    7.4472 C   0  0  0  0  0  0  0  0  0  0  0  0
   39.1355  -46.9608    8.6051 C   0  0  0  0  0  0  0  0  0  0  0  0
   39.5775  -46.3697    9.7959 C   0  0  0  0  0  0  0  0  0  0  0  0
   40.7595  -45.6699    9.7243 C   0  0  0  0  0  0  0  0  0  0  0  0
   41.5154  -45.5154    8.5946 C   0  0  0  0  0  0  0  0  0  0  0  0
   42.7560  -44.7441    8.6706 C   0  0  0  0  0  0  0  0  0  0  0  0
   43.7864  -45.2562    7.9009 F   0  0  0  0  0  0  0  0  0  0  0  0
   43.2046  -44.6762    9.9864 F   0  0  0  0  0  0  0  0  0  0  0  0
   42.5763  -43.4114    8.2941 F   0  0  0  0  0  0  0  0  0  0  0  0
   41.0297  -46.1277    7.4341 C   0  0  0  0  0  0  0  0  0  0  0  0
   35.4322  -42.5811    6.0994 C   0  0  0  0  0  0  0  0  0  0  0  0
  1  2  1  0  0  0  0
  2  3  2  0  0  0  0
  3  4  1  0  0  0  0
  4  5  2  0  0  0  0
  5  6  1  0  0  0  0
  6  7  1  0  0  0  0
  6 24  2  0  0  0  0
  7  8  2  0  0  0  0
  7  9  1  0  0  0  0
  9 10  1  0  0  0  0
 10 11  1  0  0  0  0
 11 12  1  0  0  0  0
 11 13  1  0  0  0  0
 11 14  1  0  0  0  0
 14 15  2  0  0  0  0
 15 16  1  0  0  0  0
 16 17  2  0  0  0  0
 17 18  1  0  0  0  0
 18 19  1  0  0  0  0
 18 23  2  0  0  0  0
 19 20  1  0  0  0  0
 19 21  1  0  0  0  0
 19 22  1  0  0  0  0
 23 14  1  0  0  0  0
 24  2  1  0  0  0  0
M  END
>  <CHROM.1>
-169.19014378,-179.78545791,153.45176211,62.71646835,142.20538694,39.12776275
-44.72860555,7.20218724,-2.72471384,0.44499308,-2.93112442

>  <Name>
design_5

>  <RI>
0

>  <Rbt.Current_Directory>
/home/ziqiaoxu/icml18-jtnn/VAEdesign

>  <Rbt.Executable>
rbdock ($Id: //depot/dev/client3/rdock/2013.1/src/exe/rbdock.cxx#4 $)

>  <Rbt.Library>
libRbt.so (2013.1, Build901 2013/11/27)

>  <Rbt.Parameter_File>
/export/apps/rDock/src/rDock_2013.1_src//data/scripts/dock.prm

>  <Rbt.Receptor>
/home/ziqiaoxu/icml18-jtnn/VAEdesign/targets/RdRp-SARS-CoV-2/pocket_docking.prm

>  <SCORE>
-17.8176

>  <SCORE.INTER>
-14.9415

>  <SCORE.INTER.CONST>
1

>  <SCORE.INTER.POLAR>
0

>  <SCORE.INTER.REPUL>
0.0333241

>  <SCORE.INTER.ROT>
5

>  <SCORE.INTER.VDW>
-25.5081

>  <SCORE.INTER.norm>
-0.622562

>  <SCORE.INTRA>
-2.87614

>  <SCORE.INTRA.DIHEDRAL>
-8.96274

>  <SCORE.INTRA.DIHEDRAL.0>
13.331

>  <SCORE.INTRA.POLAR>
0

>  <SCORE.INTRA.POLAR.0>
0

>  <SCORE.INTRA.REPUL>
0

>  <SCORE.INTRA.REPUL.0>
0

>  <SCORE.INTRA.VDW>
1.60523

>  <SCORE.INTRA.VDW.0>
7.53573

>  <SCORE.INTRA.norm>
-0.119839

>  <SCORE.RESTR>
0

>  <SCORE.RESTR.CAVITY>
0

>  <SCORE.RESTR.norm>
0

>  <SCORE.SYSTEM>
0

>  <SCORE.SYSTEM.CONST>
0

>  <SCORE.SYSTEM.DIHEDRAL>
0

>  <SCORE.SYSTEM.norm>
0

>  <SCORE.heavy>
24

>  <SCORE.norm>
-0.742401

$$$$
design_9
 OpenBabel05252019093D

 23 24  0  0  0  0  0  0  0  0999 V2000
   41.3837  -44.4296   10.7800 C   0  0  0  0  0  0  0  0  0  0  0  0
   40.8697  -45.3122    9.7236 C   0  0  0  0  0  0  0  0  0  0  0  0
   39.6756  -46.0168    9.9655 C   0  0  0  0  0  0  0  0  0  0  0  0
   39.1641  -46.9009    9.0474 C   0  0  0  0  0  0  0  0  0  0  0  0
   39.7935  -47.1404    7.8484 C   0  0  0  0  0  0  0  0  0  0  0  0
   39.1151  -48.2860    6.6889 S   0  0  0  0  0  0  0  0  0  0  0  0
   38.6989  -49.4918    7.4825 O   0  0  0  0  0  0  0  0  0  0  0  0
   40.1684  -48.6846    5.6981 O   0  0  0  0  0  0  0  0  0  0  0  0
   37.7946  -47.5197    5.9280 N   0  0  0  0  0  0  0  0  0  0  0  0
   37.9448  -46.0827    5.8411 C   0  0  0  0  0  0  0  0  0  0  0  0
   36.5557  -45.5107    5.6378 C   0  0  0  0  0  0  0  0  0  0  0  0
   38.7992  -45.6628    4.6676 C   0  0  0  0  0  0  0  0  0  0  0  0
   40.9514  -46.4630    7.6012 C   0  0  0  0  0  0  0  0  0  0  0  0
   41.4912  -45.5489    8.5341 C   0  0  0  0  0  0  0  0  0  0  0  0
   42.7028  -44.8130    8.1577 C   0  0  0  0  0  0  0  0  0  0  0  0
   42.6853  -43.6234    8.6496 O   0  0  0  0  0  0  0  0  0  0  0  0
   43.7621  -45.2827    7.3822 N   0  0  0  0  0  0  0  0  0  0  0  0
   44.9299  -44.6179    6.9734 C   0  0  0  0  0  0  0  0  0  0  0  0
   45.4086  -43.4498    7.5115 C   0  0  0  0  0  0  0  0  0  0  0  0
   46.5705  -42.8808    7.0528 C   0  0  0  0  0  0  0  0  0  0  0  0
   47.2819  -43.4679    6.0433 C   0  0  0  0  0  0  0  0  0  0  0  0
   46.8502  -44.6405    5.4648 C   0  0  0  0  0  0  0  0  0  0  0  0
   45.6933  -45.1821    5.9409 C   0  0  0  0  0  0  0  0  0  0  0  0
  1  2  1  0  0  0  0
  2  3  2  0  0  0  0
  3  4  1  0  0  0  0
  4  5  2  0  0  0  0
  5  6  1  0  0  0  0
  5 13  1  0  0  0  0
  6  7  2  0  0  0  0
  6  8  2  0  0  0  0
  6  9  1  0  0  0  0
  9 10  1  0  0  0  0
 10 11  1  0  0  0  0
 10 12  1  0  0  0  0
 13 14  2  0  0  0  0
 14 15  1  0  0  0  0
 14  2  1  0  0  0  0
 15 16  2  0  0  0  0
 15 17  1  0  0  0  0
 17 18  1  0  0  0  0
 18 19  2  0  0  0  0
 19 20  1  0  0  0  0
 20 21  2  0  0  0  0
 21 22  1  0  0  0  0
 22 23  2  0  0  0  0
 23 18  1  0  0  0  0
M  END
>  <CHROM.1>
-44.35542600,29.76421972,-159.62067921,-31.76727900,15.78126728,41.42174749
-45.89370106,7.26187422,0.18135776,0.40661744,1.20454213

>  <Name>
design_9

>  <RI>
0

>  <Rbt.Current_Directory>
/home/ziqiaoxu/icml18-jtnn/VAEdesign

>  <Rbt.Executable>
rbdock ($Id: //depot/dev/client3/rdock/2013.1/src/exe/rbdock.cxx#4 $)

>  <Rbt.Library>
libRbt.so (2013.1, Build901 2013/11/27)

>  <Rbt.Parameter_File>
/export/apps/rDock/src/rDock_2013.1_src//data/scripts/dock.prm

>  <Rbt.Receptor>
/home/ziqiaoxu/icml18-jtnn/VAEdesign/targets/RdRp-SARS-CoV-2/pocket_docking.prm

>  <SCORE>
-18.2533

>  <SCORE.INTER>
-17.4992

>  <SCORE.INTER.CONST>
1

>  <SCORE.INTER.POLAR>
-0.703371

>  <SCORE.INTER.REPUL>
0

>  <SCORE.INTER.ROT>
5

>  <SCORE.INTER.VDW>
-25.5078

>  <SCORE.INTER.norm>
-0.760837

>  <SCORE.INTRA>
-0.754012

>  <SCORE.INTRA.DIHEDRAL>
-3.70895

>  <SCORE.INTRA.DIHEDRAL.0>
11.2061

>  <SCORE.INTRA.POLAR>
0

>  <SCORE.INTRA.POLAR.0>
0

>  <SCORE.INTRA.REPUL>
0

>  <SCORE.INTRA.REPUL.0>
0

>  <SCORE.INTRA.VDW>
1.10046

>  <SCORE.INTRA.VDW.0>
-0.748585

>  <SCORE.INTRA.norm>
-0.0327831

>  <SCORE.RESTR>
0

>  <SCORE.RESTR.CAVITY>
0

>  <SCORE.RESTR.norm>
0

>  <SCORE.SYSTEM>
0

>  <SCORE.SYSTEM.CONST>
0

>  <SCORE.SYSTEM.DIHEDRAL>
0

>  <SCORE.SYSTEM.norm>
0

>  <SCORE.heavy>
23

>  <SCORE.norm>
-0.79362

$$$$
design_2
 OpenBabel05252019093D

 24 26  0  0  0  0  0  0  0  0999 V2000
   39.1769  -48.7175    6.3690 C   0  0  0  0  0  0  0  0  0  0  0  0
   39.6674  -47.7444    7.3764 C   0  0  0  0  0  0  0  0  0  0  0  0
   38.8745  -47.5186    8.4778 C   0  0  0  0  0  0  0  0  0  0  0  0
   39.2266  -46.6304    9.4888 C   0  0  0  0  0  0  0  0  0  0  0  0
   40.4321  -45.9739    9.3318 C   0  0  0  0  0  0  0  0  0  0  0  0
   41.2436  -46.1844    8.2359 C   0  0  0  0  0  0  0  0  0  0  0  0
   42.5124  -45.4661    8.1119 C   0  0  0  0  0  0  0  0  0  0  0  0
   43.2557  -45.3869    6.9901 N   0  0  0  0  0  0  0  0  0  0  0  0
   44.3633  -44.6494    7.2217 C   0  0  0  0  0  0  0  0  0  0  0  0
   45.4141  -44.3418    6.2366 C   0  0  0  0  0  0  0  0  0  0  0  0
   45.5543  -45.4962    5.3593 N   0  0  0  0  0  0  0  0  0  0  0  0
   44.9488  -45.5159    4.0859 C   0  0  0  0  0  0  0  0  0  0  0  0
   43.6595  -45.0338    3.9903 C   0  0  0  0  0  0  0  0  0  0  0  0
   43.0365  -45.0094    2.7618 C   0  0  0  0  0  0  0  0  0  0  0  0
   43.6999  -45.4619    1.6500 C   0  0  0  0  0  0  0  0  0  0  0  0
   45.0039  -45.9555    1.7103 C   0  0  0  0  0  0  0  0  0  0  0  0
   45.6638  -46.4240    0.4940 C   0  0  0  0  0  0  0  0  0  0  0  0
   44.8075  -46.9292   -0.5668 N   0  0  0  0  0  0  0  0  0  0  0  0
   46.8879  -46.4305    0.2826 O   0  0  0  0  0  0  0  0  0  0  0  0
   45.6211  -45.9773    2.9437 C   0  0  0  0  0  0  0  0  0  0  0  0
   47.0145  -46.5034    3.0571 C   0  0  0  0  0  0  0  0  0  0  0  0
   44.2583  -44.2808    8.5462 C   0  0  0  0  0  0  0  0  0  0  0  0
   43.1573  -44.7838    9.0232 O   0  0  0  0  0  0  0  0  0  0  0  0
   40.8720  -47.0717    7.2449 C   0  0  0  0  0  0  0  0  0  0  0  0
  1  2  1  0  0  0  0
  2  3  2  0  0  0  0
  3  4  1  0  0  0  0
  4  5  2  0  0  0  0
  5  6  1  0  0  0  0
  6  7  1  0  0  0  0
  6 24  2  0  0  0  0
  7  8  2  0  0  0  0
  8  9  1  0  0  0  0
  9 10  1  0  0  0  0
  9 22  2  0  0  0  0
 10 11  1  0  0  0  0
 11 12  1  0  0  0  0
 12 13  2  0  0  0  0
 13 14  1  0  0  0  0
 14 15  2  0  0  0  0
 15 16  1  0  0  0  0
 16 17  1  0  0  0  0
 16 20  2  0  0  0  0
 17 18  1  0  0  0  0
 17 19  2  0  0  0  0
 20 21  1  0  0  0  0
 20 12  1  0  0  0  0
 22 23  1  0  0  0  0
 23  7  1  0  0  0  0
 24  2  1  0  0  0  0
M  END
>  <CHROM.1>
-166.41815084,-34.60068976,99.69396968,-42.64287810,-27.50288425,43.32124194
-45.99445271,5.28963032,2.26741736,0.46349630,1.26434637

>  <Name>
design_2

>  <RI>
0

>  <Rbt.Current_Directory>
/home/ziqiaoxu/icml18-jtnn/VAEdesign

>  <Rbt.Executable>
rbdock ($Id: //depot/dev/client3/rdock/2013.1/src/exe/rbdock.cxx#4 $)

>  <Rbt.Library>
libRbt.so (2013.1, Build901 2013/11/27)

>  <Rbt.Parameter_File>
/export/apps/rDock/src/rDock_2013.1_src//data/scripts/dock.prm

>  <Rbt.Receptor>
/home/ziqiaoxu/icml18-jtnn/VAEdesign/targets/RdRp-SARS-CoV-2/pocket_docking.prm

>  <SCORE>
-20.97

>  <SCORE.INTER>
-22.5826

>  <SCORE.INTER.CONST>
1

>  <SCORE.INTER.POLAR>
-2.19855

>  <SCORE.INTER.REPUL>
0

>  <SCORE.INTER.ROT>
5

>  <SCORE.INTER.VDW>
-25.5075

>  <SCORE.INTER.norm>
-0.940942

>  <SCORE.INTRA>
1.61262

>  <SCORE.INTRA.DIHEDRAL>
7.98495

>  <SCORE.INTRA.DIHEDRAL.0>
4.89676

>  <SCORE.INTRA.POLAR>
0

>  <SCORE.INTRA.POLAR.0>
0

>  <SCORE.INTRA.REPUL>
0

>  <SCORE.INTRA.REPUL.0>
0

>  <SCORE.INTRA.VDW>
-2.37986

>  <SCORE.INTRA.VDW.0>
1.85159

>  <SCORE.INTRA.norm>
0.0671923

>  <SCORE.RESTR>
0

>  <SCORE.RESTR.CAVITY>
0

>  <SCORE.RESTR.norm>
0

>  <SCORE.SYSTEM>
0

>  <SCORE.SYSTEM.CONST>
0

>  <SCORE.SYSTEM.DIHEDRAL>
0

>  <SCORE.SYSTEM.norm>
0

>  <SCORE.heavy>
24

>  <SCORE.norm>
-0.873749

$$$$
design_2
 OpenBabel05252019093D

 24 27  0  0  0  0  0  0  0  0999 V2000
   40.0548  -42.6942   10.9522 C   0  0  0  0  0  0  0  0  0  0  0  0
   39.9406  -44.1077   10.4512 C   0  0  0  0  0  0  0  0  0  0  0  0
   40.3928  -45.2208   11.0324 N   0  0  0  0  0  0  0  0  0  0  0  0
   40.0743  -46.2338   10.2482 N   0  0  0  0  0  0  0  0  0  0  0  0
   39.4230  -45.7950    9.1679 C   0  0  0  0  0  0  0  0  0  0  0  0
   38.9084  -46.6291    8.0701 C   0  0  0  0  0  0  0  0  0  0  0  0
   39.2095  -47.9752    8.0403 C   0  0  0  0  0  0  0  0  0  0  0  0
   38.7590  -48.7927    7.0500 C   0  0  0  0  0  0  0  0  0  0  0  0
   37.9796  -48.2406    6.0551 C   0  0  0  0  0  0  0  0  0  0  0  0
   37.6380  -46.8905    6.0241 C   0  0  0  0  0  0  0  0  0  0  0  0
   36.8002  -46.3134    4.9598 C   0  0  0  0  0  0  0  0  0  0  0  0
   36.1625  -45.0487    5.4036 N   0  0  0  0  0  0  0  0  0  0  0  0
   36.9510  -43.9051    5.5631 C   0  0  0  0  0  0  0  0  0  0  0  0
   38.2248  -44.0155    5.3102 O   0  0  0  0  0  0  0  0  0  0  0  0
   36.5445  -42.5703    5.9825 C   0  0  0  0  0  0  0  0  0  0  0  0
   34.8929  -42.0376    6.1482 S   0  0  0  0  0  0  0  0  0  0  0  0
   35.1519  -40.4461    6.6494 C   0  0  0  0  0  0  0  0  0  0  0  0
   36.5188  -40.3536    6.6802 C   0  0  0  0  0  0  0  0  0  0  0  0
   37.2343  -41.4441    6.3377 C   0  0  0  0  0  0  0  0  0  0  0  0
   38.7519  -41.4643    6.3540 C   0  0  0  0  0  0  0  0  0  0  0  0
   39.3708  -41.5774    7.7405 C   0  0  0  0  0  0  0  0  0  0  0  0
   39.5314  -40.3494    6.8786 C   0  0  0  0  0  0  0  0  0  0  0  0
   38.1318  -46.1074    7.0681 C   0  0  0  0  0  0  0  0  0  0  0  0
   39.3425  -44.4638    9.3012 N   0  0  0  0  0  0  0  0  0  0  0  0
  1  2  1  0  0  0  0
  2  3  2  0  0  0  0
  3  4  1  0  0  0  0
  4  5  1  0  0  0  0
  5  6  1  0  0  0  0
  5 24  2  0  0  0  0
  6  7  2  0  0  0  0
  7  8  1  0  0  0  0
  8  9  2  0  0  0  0
  9 10  1  0  0  0  0
 10 11  1  0  0  0  0
 10 23  2  0  0  0  0
 11 12  1  0  0  0  0
 12 13  1  0  0  0  0
 13 14  2  0  0  0  0
 13 15  1  0  0  0  0
 15 16  1  0  0  0  0
 16 17  1  0  0  0  0
 17 18  2  0  0  0  0
 18 19  1  0  0  0  0
 19 20  1  0  0  0  0
 19 15  2  0  0  0  0
 20 21  1  0  0  0  0
 21 22  1  0  0  0  0
 22 20  1  0  0  0  0
 23  6  1  0  0  0  0
 24  2  1  0  0  0  0
M  END
>  <CHROM.1>
-6.77445875,158.13339701,71.36232746,-10.12294900,-102.69471241,38.00599311
-44.14520135,7.34228166,-0.82268660,-0.86240308,0.18922751

>  <Name>
design_2

>  <RI>
0

>  <Rbt.Current_Directory>
/home/ziqiaoxu/icml18-jtnn/VAEdesign

>  <Rbt.Executable>
rbdock ($Id: //depot/dev/client3/rdock/2013.1/src/exe/rbdock.cxx#4 $)

>  <Rbt.Library>
libRbt.so (2013.1, Build901 2013/11/27)

>  <Rbt.Parameter_File>
/export/apps/rDock/src/rDock_2013.1_src//data/scripts/dock.prm

>  <Rbt.Receptor>
/home/ziqiaoxu/icml18-jtnn/VAEdesign/targets/RdRp-SARS-CoV-2/pocket_docking.prm

>  <SCORE>
-19.0241

>  <SCORE.INTER>
-19.5499

>  <SCORE.INTER.CONST>
1

>  <SCORE.INTER.POLAR>
-1.31123

>  <SCORE.INTER.REPUL>
0.00272125

>  <SCORE.INTER.ROT>
5

>  <SCORE.INTER.VDW>
-25.5053

>  <SCORE.INTER.norm>
-0.814579

>  <SCORE.INTRA>
0.525786

>  <SCORE.INTRA.DIHEDRAL>
0.511336

>  <SCORE.INTRA.DIHEDRAL.0>
2.97175

>  <SCORE.INTRA.POLAR>
0

>  <SCORE.INTRA.POLAR.0>
0

>  <SCORE.INTRA.REPUL>
0

>  <SCORE.INTRA.REPUL.0>
0

>  <SCORE.INTRA.VDW>
0.270118

>  <SCORE.INTRA.VDW.0>
-2.00118

>  <SCORE.INTRA.norm>
0.0219077

>  <SCORE.RESTR>
0

>  <SCORE.RESTR.CAVITY>
0

>  <SCORE.RESTR.norm>
0

>  <SCORE.SYSTEM>
0

>  <SCORE.SYSTEM.CONST>
0

>  <SCORE.SYSTEM.DIHEDRAL>
0

>  <SCORE.SYSTEM.norm>
0

>  <SCORE.heavy>
24

>  <SCORE.norm>
-0.792671

$$$$
design_11
 OpenBabel05252019093D

 26 28  0  0  0  0  0  0  0  0999 V2000
   43.8353  -46.5953   -0.3631 C   0  0  0  0  0  0  0  0  0  0  0  0
   44.1776  -45.3714    0.4798 C   0  0  0  0  0  0  0  0  0  0  0  0
   45.3248  -44.6780   -0.1566 C   0  0  0  0  0  0  0  0  0  0  0  0
   44.4771  -45.8535    1.8727 N   0  0  0  0  0  0  0  0  0  0  0  0
   45.6185  -46.6854    1.9677 C   0  0  0  0  0  0  0  0  0  0  0  0
   46.8129  -46.2394    2.6657 C   0  0  0  0  0  0  0  0  0  0  0  0
   47.0942  -44.9199    2.9154 C   0  0  0  0  0  0  0  0  0  0  0  0
   48.2567  -44.5531    3.6018 C   0  0  0  0  0  0  0  0  0  0  0  0
   49.1604  -45.4800    4.0544 C   0  0  0  0  0  0  0  0  0  0  0  0
   48.8931  -46.8003    3.8126 C   0  0  0  0  0  0  0  0  0  0  0  0
   50.0435  -47.9914    4.3888 Cl  0  0  0  0  0  0  0  0  0  0  0  0
   47.7474  -47.1526    3.1363 C   0  0  0  0  0  0  0  0  0  0  0  0
   43.6483  -45.3739    2.8484 C   0  0  0  0  0  0  0  0  0  0  0  0
   42.7125  -44.5573    2.3728 O   0  0  0  0  0  0  0  0  0  0  0  0
   43.5492  -45.5398    4.2707 C   0  0  0  0  0  0  0  0  0  0  0  0
   44.4909  -45.1676    5.1954 C   0  0  0  0  0  0  0  0  0  0  0  0
   44.2753  -45.3301    6.5437 C   0  0  0  0  0  0  0  0  0  0  0  0
   43.0916  -45.8818    7.0351 C   0  0  0  0  0  0  0  0  0  0  0  0
   42.1216  -46.2697    6.1607 C   0  0  0  0  0  0  0  0  0  0  0  0
   40.8728  -46.8268    6.5607 N   0  0  0  0  0  0  0  0  0  0  0  0
   39.8901  -47.4588    5.6731 C   0  0  0  0  0  0  0  0  0  0  0  0
   39.3238  -48.5421    6.5931 C   0  0  0  0  0  0  0  0  0  0  0  0
   39.0256  -47.7022    7.8088 C   0  0  0  0  0  0  0  0  0  0  0  0
   40.3081  -46.8876    7.8519 C   0  0  0  0  0  0  0  0  0  0  0  0
   40.7545  -46.3689    8.8987 O   0  0  0  0  0  0  0  0  0  0  0  0
   42.3700  -46.0920    4.8082 C   0  0  0  0  0  0  0  0  0  0  0  0
  1  2  1  0  0  0  0
  2  3  1  0  0  0  0
  2  4  1  0  0  0  0
  4  5  1  0  0  0  0
  4 13  1  0  0  0  0
  5  6  1  0  0  0  0
  6  7  2  0  0  0  0
  7  8  1  0  0  0  0
  8  9  2  0  0  0  0
  9 10  1  0  0  0  0
 10 11  1  0  0  0  0
 10 12  2  0  0  0  0
 12  6  1  0  0  0  0
 13 14  2  0  0  0  0
 13 15  1  0  0  0  0
 15 16  2  0  0  0  0
 16 17  1  0  0  0  0
 17 18  2  0  0  0  0
 18 19  1  0  0  0  0
 19 20  1  0  0  0  0
 19 26  2  0  0  0  0
 20 21  1  0  0  0  0
 21 22  1  0  0  0  0
 22 23  1  0  0  0  0
 23 24  1  0  0  0  0
 24 25  2  0  0  0  0
 24 20  1  0  0  0  0
 26 15  1  0  0  0  0
M  END
>  <CHROM.1>
64.34299246,112.44884971,-20.32137495,63.15934937,-169.37832659,44.42780322
-46.27564776,4.25688632,0.49553742,0.06323567,-1.31235885

>  <Name>
design_11

>  <RI>
0

>  <Rbt.Current_Directory>
/home/ziqiaoxu/icml18-jtnn/VAEdesign

>  <Rbt.Executable>
rbdock ($Id: //depot/dev/client3/rdock/2013.1/src/exe/rbdock.cxx#4 $)

>  <Rbt.Library>
libRbt.so (2013.1, Build901 2013/11/27)

>  <Rbt.Parameter_File>
/export/apps/rDock/src/rDock_2013.1_src//data/scripts/dock.prm

>  <Rbt.Receptor>
/home/ziqiaoxu/icml18-jtnn/VAEdesign/targets/RdRp-SARS-CoV-2/pocket_docking.prm

>  <SCORE>
-16.2225

>  <SCORE.INTER>
-15.1029

>  <SCORE.INTER.CONST>
1

>  <SCORE.INTER.POLAR>
0

>  <SCORE.INTER.REPUL>
0

>  <SCORE.INTER.ROT>
5

>  <SCORE.INTER.VDW>
-25.5029

>  <SCORE.INTER.norm>
-0.58088

>  <SCORE.INTRA>
-1.1196

>  <SCORE.INTRA.DIHEDRAL>
9.77655

>  <SCORE.INTRA.DIHEDRAL.0>
3.80323

>  <SCORE.INTRA.POLAR>
0

>  <SCORE.INTRA.POLAR.0>
0

>  <SCORE.INTRA.REPUL>
0

>  <SCORE.INTRA.REPUL.0>
0

>  <SCORE.INTRA.VDW>
-6.00787

>  <SCORE.INTRA.VDW.0>
7.03835

>  <SCORE.INTRA.norm>
-0.0430615

>  <SCORE.RESTR>
0

>  <SCORE.RESTR.CAVITY>
0

>  <SCORE.RESTR.norm>
0

>  <SCORE.SYSTEM>
0

>  <SCORE.SYSTEM.CONST>
0

>  <SCORE.SYSTEM.DIHEDRAL>
0

>  <SCORE.SYSTEM.norm>
0

>  <SCORE.heavy>
26

>  <SCORE.norm>
-0.623942

$$$$
design_3
 OpenBabel05252019093D

 27 29  0  0  0  0  0  0  0  0999 V2000
   47.3511  -47.4514    2.9610 C   0  0  0  0  0  0  0  0  0  0  0  0
   46.6044  -46.2543    2.9946 O   0  0  0  0  0  0  0  0  0  0  0  0
   46.6116  -45.5265    4.1897 C   0  0  0  0  0  0  0  0  0  0  0  0
   47.6511  -44.7174    4.5322 C   0  0  0  0  0  0  0  0  0  0  0  0
   47.6228  -44.0082    5.7302 C   0  0  0  0  0  0  0  0  0  0  0  0
   46.5393  -44.1258    6.5721 C   0  0  0  0  0  0  0  0  0  0  0  0
   45.4823  -44.9387    6.2405 C   0  0  0  0  0  0  0  0  0  0  0  0
   44.2863  -45.0904    7.1038 C   0  0  0  0  0  0  0  0  0  0  0  0
   43.3066  -45.6757    6.6089 O   0  0  0  0  0  0  0  0  0  0  0  0
   44.3372  -44.5718    8.3980 N   0  0  0  0  0  0  0  0  0  0  0  0
   43.3661  -44.5702    9.4172 C   0  0  0  0  0  0  0  0  0  0  0  0
   43.6619  -44.0532   10.6850 C   0  0  0  0  0  0  0  0  0  0  0  0
   42.6956  -44.0531   11.6509 C   0  0  0  0  0  0  0  0  0  0  0  0
   41.4139  -44.5520   11.4233 C   0  0  0  0  0  0  0  0  0  0  0  0
   41.0870  -45.0662   10.1934 C   0  0  0  0  0  0  0  0  0  0  0  0
   39.8223  -45.5822    9.8377 N   0  0  0  0  0  0  0  0  0  0  0  0
   39.5677  -46.5419    8.8595 C   0  0  0  0  0  0  0  0  0  0  0  0
   40.4143  -47.1037    8.1443 O   0  0  0  0  0  0  0  0  0  0  0  0
   38.1370  -46.9715    8.6107 C   0  0  0  0  0  0  0  0  0  0  0  0
   37.7128  -46.5532    7.3076 N   0  0  0  0  0  0  0  0  0  0  0  0
   38.3938  -46.5398    6.1457 C   0  0  0  0  0  0  0  0  0  0  0  0
   37.5680  -46.0603    5.1698 C   0  0  0  0  0  0  0  0  0  0  0  0
   37.8931  -45.8668    3.7149 C   0  0  0  0  0  0  0  0  0  0  0  0
   36.3578  -45.7753    5.7491 C   0  0  0  0  0  0  0  0  0  0  0  0
   36.5055  -46.0939    7.0441 N   0  0  0  0  0  0  0  0  0  0  0  0
   42.1136  -45.0485    9.2206 C   0  0  0  0  0  0  0  0  0  0  0  0
   45.5165  -45.6315    5.0633 C   0  0  0  0  0  0  0  0  0  0  0  0
  1  2  1  0  0  0  0
  2  3  1  0  0  0  0
  3  4  2  0  0  0  0
  4  5  1  0  0  0  0
  5  6  2  0  0  0  0
  6  7  1  0  0  0  0
  7  8  1  0  0  0  0
  7 27  2  0  0  0  0
  8  9  2  0  0  0  0
  8 10  1  0  0  0  0
 10 11  1  0  0  0  0
 11 12  2  0  0  0  0
 12 13  1  0  0  0  0
 13 14  2  0  0  0  0
 14 15  1  0  0  0  0
 15 16  1  0  0  0  0
 15 26  2  0  0  0  0
 16 17  1  0  0  0  0
 17 18  2  0  0  0  0
 17 19  1  0  0  0  0
 19 20  1  0  0  0  0
 20 21  1  0  0  0  0
 21 22  2  0  0  0  0
 22 23  1  0  0  0  0
 22 24  1  0  0  0  0
 24 25  2  0  0  0  0
 25 20  1  0  0  0  0
 26 11  1  0  0  0  0
 27  3  1  0  0  0  0
M  END
>  <CHROM.1>
79.61045565,168.71238595,176.25511444,-153.44350367,113.23307963,39.23750037
42.28171665,-45.53416687,7.12100045,0.26502562,-0.15790923,-1.81499711

>  <Name>
design_3

>  <RI>
0

>  <Rbt.Current_Directory>
/home/ziqiaoxu/icml18-jtnn/VAEdesign

>  <Rbt.Executable>
rbdock ($Id: //depot/dev/client3/rdock/2013.1/src/exe/rbdock.cxx#4 $)

>  <Rbt.Library>
libRbt.so (2013.1, Build901 2013/11/27)

>  <Rbt.Parameter_File>
/export/apps/rDock/src/rDock_2013.1_src//data/scripts/dock.prm

>  <Rbt.Receptor>
/home/ziqiaoxu/icml18-jtnn/VAEdesign/targets/RdRp-SARS-CoV-2/pocket_docking.prm

>  <SCORE>
-17.5584

>  <SCORE.INTER>
-17.5696

>  <SCORE.INTER.CONST>
1

>  <SCORE.INTER.POLAR>
-1.0198

>  <SCORE.INTER.REPUL>
0

>  <SCORE.INTER.ROT>
6

>  <SCORE.INTER.VDW>
-25.5023

>  <SCORE.INTER.norm>
-0.650726

>  <SCORE.INTRA>
0.0111457

>  <SCORE.INTRA.DIHEDRAL>
3.37193

>  <SCORE.INTRA.DIHEDRAL.0>
8.23042

>  <SCORE.INTRA.POLAR>
0

>  <SCORE.INTRA.POLAR.0>
0

>  <SCORE.INTRA.REPUL>
0.0965736

>  <SCORE.INTRA.REPUL.0>
0

>  <SCORE.INTRA.VDW>
-2.15769

>  <SCORE.INTRA.VDW.0>
1.95203

>  <SCORE.INTRA.norm>
0.000412805

>  <SCORE.RESTR>
0

>  <SCORE.RESTR.CAVITY>
0

>  <SCORE.RESTR.norm>
0

>  <SCORE.SYSTEM>
0

>  <SCORE.SYSTEM.CONST>
0

>  <SCORE.SYSTEM.DIHEDRAL>
0

>  <SCORE.SYSTEM.norm>
0

>  <SCORE.heavy>
27

>  <SCORE.norm>
-0.650313

$$$$
design_7
 OpenBabel05252019093D

 23 24  0  0  0  0  0  0  0  0999 V2000
   40.0113  -36.5838    2.5010 C   0  0  0  0  0  0  0  0  0  0  0  0
   39.8307  -37.6675    3.5255 C   0  0  0  0  0  0  0  0  0  0  0  0
   39.3197  -38.7358    3.1304 O   0  0  0  0  0  0  0  0  0  0  0  0
   40.2436  -37.4047    4.8352 N   0  0  0  0  0  0  0  0  0  0  0  0
   40.1788  -38.2547    5.9616 C   0  0  0  0  0  0  0  0  0  0  0  0
   39.7677  -39.5820    5.8035 C   0  0  0  0  0  0  0  0  0  0  0  0
   39.6752  -40.4775    6.8465 C   0  0  0  0  0  0  0  0  0  0  0  0
   39.9870  -40.1153    8.1267 C   0  0  0  0  0  0  0  0  0  0  0  0
   39.9491  -40.9622    9.2682 N   0  0  0  0  0  0  0  0  0  0  0  0
   40.1000  -42.3461    9.2570 C   0  0  0  0  0  0  0  0  0  0  0  0
   40.2927  -43.0203    8.2482 O   0  0  0  0  0  0  0  0  0  0  0  0
   40.0259  -43.0867   10.5584 C   0  0  0  0  0  0  0  0  0  0  0  0
   40.7433  -44.4144   10.4724 C   0  0  0  0  0  0  0  0  0  0  0  0
   39.8259  -45.4899   10.1997 N   0  0  0  0  0  0  0  0  0  0  0  0
   39.9493  -46.2393    9.0051 C   0  0  0  0  0  0  0  0  0  0  0  0
   41.0134  -45.9857    8.1448 C   0  0  0  0  0  0  0  0  0  0  0  0
   41.1394  -46.7215    7.0040 C   0  0  0  0  0  0  0  0  0  0  0  0
   40.2141  -47.7072    6.7139 C   0  0  0  0  0  0  0  0  0  0  0  0
   40.3426  -48.4354    5.5802 F   0  0  0  0  0  0  0  0  0  0  0  0
   39.1740  -47.9597    7.5491 C   0  0  0  0  0  0  0  0  0  0  0  0
   39.0317  -47.2166    8.7190 C   0  0  0  0  0  0  0  0  0  0  0  0
   40.3996  -38.7858    8.2925 C   0  0  0  0  0  0  0  0  0  0  0  0
   40.4904  -37.8936    7.2476 C   0  0  0  0  0  0  0  0  0  0  0  0
  1  2  1  0  0  0  0
  2  3  2  0  0  0  0
  2  4  1  0  0  0  0
  4  5  1  0  0  0  0
  5  6  2  0  0  0  0
  6  7  1  0  0  0  0
  7  8  2  0  0  0  0
  8  9  1  0  0  0  0
  8 22  1  0  0  0  0
  9 10  1  0  0  0  0
 10 11  2  0  0  0  0
 10 12  1  0  0  0  0
 12 13  1  0  0  0  0
 13 14  1  0  0  0  0
 14 15  1  0  0  0  0
 15 16  2  0  0  0  0
 16 17  1  0  0  0  0
 17 18  2  0  0  0  0
 18 19  1  0  0  0  0
 18 20  1  0  0  0  0
 20 21  2  0  0  0  0
 21 15  1  0  0  0  0
 22 23  2  0  0  0  0
 23  5  1  0  0  0  0
M  END
>  <CHROM.1>
6.19629217,26.32947777,-156.74531192,-96.91102760,117.47848863,4.23042165
40.07343179,-42.43395268,7.21405742,1.90330016,-1.53588866,-0.01662460

>  <Name>
design_7

>  <RI>
0

>  <Rbt.Current_Directory>
/home/ziqiaoxu/icml18-jtnn/VAEdesign

>  <Rbt.Executable>
rbdock ($Id: //depot/dev/client3/rdock/2013.1/src/exe/rbdock.cxx#4 $)

>  <Rbt.Library>
libRbt.so (2013.1, Build901 2013/11/27)

>  <Rbt.Parameter_File>
/export/apps/rDock/src/rDock_2013.1_src//data/scripts/dock.prm

>  <Rbt.Receptor>
/home/ziqiaoxu/icml18-jtnn/VAEdesign/targets/RdRp-SARS-CoV-2/pocket_docking.prm

>  <SCORE>
-18.1232

>  <SCORE.INTER>
-19.9384

>  <SCORE.INTER.CONST>
1

>  <SCORE.INTER.POLAR>
-1.71743

>  <SCORE.INTER.REPUL>
0

>  <SCORE.INTER.ROT>
6

>  <SCORE.INTER.VDW>
-25.4991

>  <SCORE.INTER.norm>
-0.866887

>  <SCORE.INTRA>
1.8009

>  <SCORE.INTRA.DIHEDRAL>
5.31786

>  <SCORE.INTRA.DIHEDRAL.0>
5.31561

>  <SCORE.INTRA.POLAR>
0

>  <SCORE.INTRA.POLAR.0>
0

>  <SCORE.INTRA.REPUL>
0

>  <SCORE.INTRA.REPUL.0>
0

>  <SCORE.INTRA.VDW>
-0.858027

>  <SCORE.INTRA.VDW.0>
1.83679

>  <SCORE.INTRA.norm>
0.0783001

>  <SCORE.RESTR>
0.014325

>  <SCORE.RESTR.CAVITY>
0.014325

>  <SCORE.RESTR.norm>
0.000622825

>  <SCORE.SYSTEM>
0

>  <SCORE.SYSTEM.CONST>
0

>  <SCORE.SYSTEM.DIHEDRAL>
0

>  <SCORE.SYSTEM.norm>
0

>  <SCORE.heavy>
23

>  <SCORE.norm>
-0.787964

$$$$
design_8
 OpenBabel05252019093D

 24 25  0  0  0  0  0  0  0  0999 V2000
   39.8290  -47.3903    5.7353 C   0  0  0  0  0  0  0  0  0  0  0  0
   40.8966  -47.4930    6.5108 O   0  0  0  0  0  0  0  0  0  0  0  0
   41.0838  -46.6040    7.7781 C   0  0  0  0  0  0  0  0  0  0  0  0
   40.1259  -46.8494    8.6295 C   0  0  0  0  0  0  0  0  0  0  0  0
   40.1841  -46.0197    9.7922 C   0  0  0  0  0  0  0  0  0  0  0  0
   41.2472  -45.1668    9.7232 C   0  0  0  0  0  0  0  0  0  0  0  0
   42.1378  -45.0068    8.8439 C   0  0  0  0  0  0  0  0  0  0  0  0
   42.1578  -45.9738    7.3685 C   0  0  0  0  0  0  0  0  0  0  0  0
   43.2194  -45.3127    6.9748 C   0  0  0  0  0  0  0  0  0  0  0  0
   42.8720  -43.9848    6.6065 O   0  0  0  0  0  0  0  0  0  0  0  0
   44.5678  -45.4256    6.7497 N   0  0  0  0  0  0  0  0  0  0  0  0
   45.2396  -44.2970    6.1516 C   0  0  0  0  0  0  0  0  0  0  0  0
   46.1133  -44.6183    5.0540 C   0  0  0  0  0  0  0  0  0  0  0  0
   46.5038  -43.6329    4.3289 O   0  0  0  0  0  0  0  0  0  0  0  0
   46.5572  -45.9287    4.7390 N   0  0  0  0  0  0  0  0  0  0  0  0
   47.3838  -46.2243    3.6061 C   0  0  0  0  0  0  0  0  0  0  0  0
   46.8042  -47.2579    2.7155 C   0  0  0  0  0  0  0  0  0  0  0  0
   45.8532  -46.7012    1.7519 C   0  0  0  0  0  0  0  0  0  0  0  0
   44.6719  -46.1787    2.0820 C   0  0  0  0  0  0  0  0  0  0  0  0
   43.7261  -45.7549    1.1227 C   0  0  0  0  0  0  0  0  0  0  0  0
   44.0400  -45.8806   -0.1975 C   0  0  0  0  0  0  0  0  0  0  0  0
   45.2872  -46.4197   -0.5791 C   0  0  0  0  0  0  0  0  0  0  0  0
   46.1977  -46.8309    0.3456 C   0  0  0  0  0  0  0  0  0  0  0  0
   47.5216  -47.3998    0.0801 C   0  0  0  0  0  0  0  0  0  0  0  0
  1  2  1  0  0  0  0
  2  3  1  0  0  0  0
  3  4  2  0  0  0  0
  4  5  1  0  0  0  0
  5  6  2  0  0  0  0
  6  7  1  0  0  0  0
  7  8  2  0  0  0  0
  8  9  1  0  0  0  0
  8  3  1  0  0  0  0
  9 10  2  0  0  0  0
  9 11  1  0  0  0  0
 11 12  1  0  0  0  0
 12 13  1  0  0  0  0
 13 14  2  0  0  0  0
 13 15  1  0  0  0  0
 15 16  1  0  0  0  0
 16 17  1  0  0  0  0
 17 18  1  0  0  0  0
 18 19  2  0  0  0  0
 19 20  1  0  0  0  0
 20 21  2  0  0  0  0
 21 22  1  0  0  0  0
 22 23  2  0  0  0  0
 23 24  1  0  0  0  0
 23 18  1  0  0  0  0
M  END
>  <CHROM.1>
62.24777313,-37.22159466,-132.67825186,165.98203174,-124.85807310,84.32426966
-67.57287143,43.95012902,-45.92565106,4.83972002,2.22730966,0.36357838,1.24496311

>  <Name>
design_8

>  <RI>
0

>  <Rbt.Current_Directory>
/home/ziqiaoxu/icml18-jtnn/VAEdesign

>  <Rbt.Executable>
rbdock ($Id: //depot/dev/client3/rdock/2013.1/src/exe/rbdock.cxx#4 $)

>  <Rbt.Library>
libRbt.so (2013.1, Build901 2013/11/27)

>  <Rbt.Parameter_File>
/export/apps/rDock/src/rDock_2013.1_src//data/scripts/dock.prm

>  <Rbt.Receptor>
/home/ziqiaoxu/icml18-jtnn/VAEdesign/targets/RdRp-SARS-CoV-2/pocket_docking.prm

>  <SCORE>
-18.8056

>  <SCORE.INTER>
-19.1156

>  <SCORE.INTER.CONST>
1

>  <SCORE.INTER.POLAR>
-1.77332

>  <SCORE.INTER.REPUL>
0.00249605

>  <SCORE.INTER.ROT>
7

>  <SCORE.INTER.VDW>
-25.4987

>  <SCORE.INTER.norm>
-0.796481

>  <SCORE.INTRA>
0.309955

>  <SCORE.INTRA.DIHEDRAL>
10.298

>  <SCORE.INTRA.DIHEDRAL.0>
7.82196

>  <SCORE.INTRA.POLAR>
0

>  <SCORE.INTRA.POLAR.0>
0

>  <SCORE.INTRA.REPUL>
0

>  <SCORE.INTRA.REPUL.0>
0

>  <SCORE.INTRA.VDW>
-4.83907

>  <SCORE.INTRA.VDW.0>
4.70187

>  <SCORE.INTRA.norm>
0.0129148

>  <SCORE.RESTR>
0

>  <SCORE.RESTR.CAVITY>
0

>  <SCORE.RESTR.norm>
0

>  <SCORE.SYSTEM>
0

>  <SCORE.SYSTEM.CONST>
0

>  <SCORE.SYSTEM.DIHEDRAL>
0

>  <SCORE.SYSTEM.norm>
0

>  <SCORE.heavy>
24

>  <SCORE.norm>
-0.783567

$$$$
design_0
 OpenBabel05252019093D

 26 29  0  0  0  0  0  0  0  0999 V2000
   41.0284  -35.8619    3.7647 C   0  0  0  0  0  0  0  0  0  0  0  0
   40.2796  -37.0410    4.3278 C   0  0  0  0  0  0  0  0  0  0  0  0
   39.2933  -37.7318    3.7435 N   0  0  0  0  0  0  0  0  0  0  0  0
   38.9127  -38.6812    4.5728 N   0  0  0  0  0  0  0  0  0  0  0  0
   39.6312  -38.6299    5.6968 C   0  0  0  0  0  0  0  0  0  0  0  0
   39.5153  -39.4943    6.8481 C   0  0  0  0  0  0  0  0  0  0  0  0
   40.3749  -39.3627    7.9156 C   0  0  0  0  0  0  0  0  0  0  0  0
   40.3090  -40.1520    9.0381 C   0  0  0  0  0  0  0  0  0  0  0  0
   39.3280  -41.1423    9.1192 C   0  0  0  0  0  0  0  0  0  0  0  0
   39.1880  -42.0112   10.2884 C   0  0  0  0  0  0  0  0  0  0  0  0
   39.3811  -43.4079   10.0598 N   0  0  0  0  0  0  0  0  0  0  0  0
   40.5384  -43.8813    9.4090 C   0  0  0  0  0  0  0  0  0  0  0  0
   41.4009  -43.0233    9.0400 O   0  0  0  0  0  0  0  0  0  0  0  0
   40.7215  -45.3190    9.1777 C   0  0  1  0  0  0  0  0  0  0  0  0
   39.7363  -46.2147    9.8970 C   0  0  0  0  0  0  0  0  0  0  0  0
   39.8010  -46.1779    8.4189 C   0  0  1  0  0  0  0  0  0  0  0  0
   38.7507  -45.6170    7.5618 C   0  0  0  0  0  0  0  0  0  0  0  0
   37.5752  -46.3100    7.3911 C   0  0  0  0  0  0  0  0  0  0  0  0
   36.5441  -45.8482    6.6083 C   0  0  0  0  0  0  0  0  0  0  0  0
   36.6903  -44.6458    5.9689 C   0  0  0  0  0  0  0  0  0  0  0  0
   35.7065  -44.1344    5.1783 F   0  0  0  0  0  0  0  0  0  0  0  0
   37.8665  -43.9191    6.1200 C   0  0  0  0  0  0  0  0  0  0  0  0
   38.9039  -44.4099    6.9233 C   0  0  0  0  0  0  0  0  0  0  0  0
   38.4627  -41.2853    8.0611 C   0  0  0  0  0  0  0  0  0  0  0  0
   38.5503  -40.4727    6.9338 C   0  0  0  0  0  0  0  0  0  0  0  0
   40.4785  -37.6060    5.5335 N   0  0  0  0  0  0  0  0  0  0  0  0
  1  2  1  0  0  0  0
  2  3  2  0  0  0  0
  3  4  1  0  0  0  0
  4  5  1  0  0  0  0
  5  6  1  0  0  0  0
  5 26  2  0  0  0  0
  6  7  2  0  0  0  0
  7  8  1  0  0  0  0
  8  9  2  0  0  0  0
  9 10  1  0  0  0  0
  9 24  1  0  0  0  0
 10 11  1  0  0  0  0
 11 12  1  0  0  0  0
 12 13  2  0  0  0  0
 14 12  1  6  0  0  0
 14 15  1  0  0  0  0
 15 16  1  0  0  0  0
 16 17  1  6  0  0  0
 16 14  1  0  0  0  0
 17 18  2  0  0  0  0
 18 19  1  0  0  0  0
 19 20  2  0  0  0  0
 20 21  1  0  0  0  0
 20 22  1  0  0  0  0
 22 23  2  0  0  0  0
 23 17  1  0  0  0  0
 24 25  2  0  0  0  0
 25  6  1  0  0  0  0
 26  2  1  0  0  0  0
M  END
>  <CHROM.1>
176.74228567,-117.80458946,52.07630276,-10.67509358,-149.05109861,39.16056317
-42.01502427,7.18429871,1.32976602,-0.86628713,-0.58104303

>  <Name>
design_0

>  <RI>
0

>  <Rbt.Current_Directory>
/home/ziqiaoxu/icml18-jtnn/VAEdesign

>  <Rbt.Executable>
rbdock ($Id: //depot/dev/client3/rdock/2013.1/src/exe/rbdock.cxx#4 $)

>  <Rbt.Library>
libRbt.so (2013.1, Build901 2013/11/27)

>  <Rbt.Parameter_File>
/export/apps/rDock/src/rDock_2013.1_src//data/scripts/dock.prm

>  <Rbt.Receptor>
/home/ziqiaoxu/icml18-jtnn/VAEdesign/targets/RdRp-SARS-CoV-2/pocket_docking.prm

>  <SCORE>
-20.1999

>  <SCORE.INTER>
-20.6778

>  <SCORE.INTER.CONST>
1

>  <SCORE.INTER.POLAR>
-2.28065

>  <SCORE.INTER.REPUL>
0.434975

>  <SCORE.INTER.ROT>
5

>  <SCORE.INTER.VDW>
-25.4985

>  <SCORE.INTER.norm>
-0.795301

>  <SCORE.INTRA>
0.477878

>  <SCORE.INTRA.DIHEDRAL>
0.321358

>  <SCORE.INTRA.DIHEDRAL.0>
4.43067

>  <SCORE.INTRA.POLAR>
0

>  <SCORE.INTRA.POLAR.0>
0

>  <SCORE.INTRA.REPUL>
0

>  <SCORE.INTRA.REPUL.0>
0

>  <SCORE.INTRA.VDW>
0.317198

>  <SCORE.INTRA.VDW.0>
-2.9881

>  <SCORE.INTRA.norm>
0.0183799

>  <SCORE.RESTR>
0

>  <SCORE.RESTR.CAVITY>
0

>  <SCORE.RESTR.norm>
0

>  <SCORE.SYSTEM>
0

>  <SCORE.SYSTEM.CONST>
0

>  <SCORE.SYSTEM.DIHEDRAL>
0

>  <SCORE.SYSTEM.norm>
0

>  <SCORE.heavy>
26

>  <SCORE.norm>
-0.776921

$$$$
design_6
 OpenBabel05252019093D

 23 24  0  0  0  0  0  0  0  0999 V2000
   38.5840  -49.0659    6.4934 C   0  0  0  0  0  0  0  0  0  0  0  0
   39.1614  -48.0329    7.3719 C   0  0  0  0  0  0  0  0  0  0  0  0
   38.4660  -47.5779    8.4710 C   0  0  0  0  0  0  0  0  0  0  0  0
   39.0444  -46.6158    9.2585 C   0  0  0  0  0  0  0  0  0  0  0  0
   40.2980  -46.1005    8.9726 C   0  0  0  0  0  0  0  0  0  0  0  0
   41.0072  -46.5318    7.8935 C   0  0  0  0  0  0  0  0  0  0  0  0
   42.2816  -46.1025    7.4919 N   0  0  0  0  0  0  0  0  0  0  0  0
   43.1322  -45.1643    8.1034 C   0  0  0  0  0  0  0  0  0  0  0  0
   42.7997  -44.5750    9.1533 O   0  0  0  0  0  0  0  0  0  0  0  0
   44.4656  -44.8408    7.5141 C   0  0  0  0  0  0  0  0  0  0  0  0
   44.7835  -45.6213    6.3601 N   0  0  0  0  0  0  0  0  0  0  0  0
   45.6656  -44.8175    5.1481 S   0  0  0  0  0  0  0  0  0  0  0  0
   47.1260  -45.2301    5.3365 O   0  0  0  0  0  0  0  0  0  0  0  0
   45.6739  -43.3250    5.3458 O   0  0  0  0  0  0  0  0  0  0  0  0
   45.2023  -45.2760    3.5570 C   0  0  0  0  0  0  0  0  0  0  0  0
   46.1160  -45.8538    2.7014 C   0  0  0  0  0  0  0  0  0  0  0  0
   45.7369  -46.2677    1.4322 C   0  0  0  0  0  0  0  0  0  0  0  0
   44.4577  -46.1128    1.0089 C   0  0  0  0  0  0  0  0  0  0  0  0
   44.0882  -46.5739   -0.3715 C   0  0  0  0  0  0  0  0  0  0  0  0
   43.5561  -45.5387    1.8664 C   0  0  0  0  0  0  0  0  0  0  0  0
   43.8764  -45.1125    3.1272 C   0  0  0  0  0  0  0  0  0  0  0  0
   42.9269  -44.4949    4.0616 C   0  0  0  0  0  0  0  0  0  0  0  0
   40.3908  -47.5148    7.1078 C   0  0  0  0  0  0  0  0  0  0  0  0
  1  2  1  0  0  0  0
  2  3  2  0  0  0  0
  3  4  1  0  0  0  0
  4  5  2  0  0  0  0
  5  6  1  0  0  0  0
  6  7  1  0  0  0  0
  6 23  2  0  0  0  0
  7  8  1  0  0  0  0
  8  9  2  0  0  0  0
  8 10  1  0  0  0  0
 10 11  1  0  0  0  0
 11 12  1  0  0  0  0
 12 13  2  0  0  0  0
 12 14  2  0  0  0  0
 12 15  1  0  0  0  0
 15 16  2  0  0  0  0
 16 17  1  0  0  0  0
 17 18  2  0  0  0  0
 18 19  1  0  0  0  0
 18 20  1  0  0  0  0
 20 21  2  0  0  0  0
 21 22  1  0  0  0  0
 21 15  1  0  0  0  0
 23  2  1  0  0  0  0
M  END
>  <CHROM.1>
1.39551614,-3.40062628,144.61796760,99.25851334,-119.33665619,43.20224746
-45.83473784,5.53442025,2.45874590,0.48356348,1.33139301

>  <Name>
design_6

>  <RI>
0

>  <Rbt.Current_Directory>
/home/ziqiaoxu/icml18-jtnn/VAEdesign

>  <Rbt.Executable>
rbdock ($Id: //depot/dev/client3/rdock/2013.1/src/exe/rbdock.cxx#4 $)

>  <Rbt.Library>
libRbt.so (2013.1, Build901 2013/11/27)

>  <Rbt.Parameter_File>
/export/apps/rDock/src/rDock_2013.1_src//data/scripts/dock.prm

>  <Rbt.Receptor>
/home/ziqiaoxu/icml18-jtnn/VAEdesign/targets/RdRp-SARS-CoV-2/pocket_docking.prm

>  <SCORE>
-17.403

>  <SCORE.INTER>
-18.1396

>  <SCORE.INTER.CONST>
1

>  <SCORE.INTER.POLAR>
-0.894427

>  <SCORE.INTER.REPUL>
0

>  <SCORE.INTER.ROT>
5

>  <SCORE.INTER.VDW>
-25.4985

>  <SCORE.INTER.norm>
-0.788676

>  <SCORE.INTRA>
0.736514

>  <SCORE.INTRA.DIHEDRAL>
3.20661

>  <SCORE.INTRA.DIHEDRAL.0>
2.6685

>  <SCORE.INTRA.POLAR>
0.00179657

>  <SCORE.INTRA.POLAR.0>
-0.0853322

>  <SCORE.INTRA.REPUL>
0

>  <SCORE.INTRA.REPUL.0>
0

>  <SCORE.INTRA.VDW>
-0.872901

>  <SCORE.INTRA.VDW.0>
-1.22715

>  <SCORE.INTRA.norm>
0.0320223

>  <SCORE.RESTR>
0

>  <SCORE.RESTR.CAVITY>
0

>  <SCORE.RESTR.norm>
0

>  <SCORE.SYSTEM>
0

>  <SCORE.SYSTEM.CONST>
0

>  <SCORE.SYSTEM.DIHEDRAL>
0

>  <SCORE.SYSTEM.norm>
0

>  <SCORE.heavy>
23

>  <SCORE.norm>
-0.756654

$$$$
design_11
 OpenBabel05252019093D

 24 26  0  0  0  0  0  0  0  0999 V2000
   40.1066  -46.3089   10.3773 N   0  0  0  0  0  0  0  0  0  0  0  0
   40.8462  -46.0146    9.2003 C   0  0  0  0  0  0  0  0  0  0  0  0
   41.7896  -45.1858    9.3031 O   0  0  0  0  0  0  0  0  0  0  0  0
   40.5316  -46.6448    7.9156 C   0  0  0  0  0  0  0  0  0  0  0  0
   39.5179  -47.5674    7.8569 C   0  0  0  0  0  0  0  0  0  0  0  0
   39.2414  -48.1433    6.6470 C   0  0  0  0  0  0  0  0  0  0  0  0
   39.9928  -47.7774    5.5198 C   0  0  0  0  0  0  0  0  0  0  0  0
   41.0034  -46.8658    5.5469 C   0  0  0  0  0  0  0  0  0  0  0  0
   41.7809  -46.4511    4.4512 N   0  0  0  0  0  0  0  0  0  0  0  0
   42.8418  -45.5255    4.4676 C   0  0  0  0  0  0  0  0  0  0  0  0
   43.2413  -44.9417    5.4802 O   0  0  0  0  0  0  0  0  0  0  0  0
   43.5435  -45.2191    3.1714 C   0  0  0  0  0  0  0  0  0  0  0  0
   42.5082  -45.0112    2.1114 C   0  0  0  0  0  0  0  0  0  0  0  0
   43.0465  -44.7130    0.7557 C   0  0  0  0  0  0  0  0  0  0  0  0
   43.2932  -43.2563    0.5262 C   0  0  0  0  0  0  0  0  0  0  0  0
   44.2910  -42.6325   -0.0586 N   0  0  0  0  0  0  0  0  0  0  0  0
   44.3078  -41.3346   -0.1527 C   0  0  0  0  0  0  0  0  0  0  0  0
   45.3233  -40.5631   -0.7569 C   0  0  0  0  0  0  0  0  0  0  0  0
   45.2122  -39.2160   -0.7845 C   0  0  0  0  0  0  0  0  0  0  0  0
   44.1720  -38.4884   -0.2649 C   0  0  0  0  0  0  0  0  0  0  0  0
   43.1645  -39.2495    0.3342 C   0  0  0  0  0  0  0  0  0  0  0  0
   43.2499  -40.6483    0.3792 C   0  0  0  0  0  0  0  0  0  0  0  0
   42.2876  -41.9222    0.9872 S   0  0  0  0  0  0  0  0  0  0  0  0
   41.2595  -46.2940    6.8095 C   0  0  0  0  0  0  0  0  0  0  0  0
  1  2  1  0  0  0  0
  2  3  2  0  0  0  0
  2  4  1  0  0  0  0
  4  5  2  0  0  0  0
  5  6  1  0  0  0  0
  6  7  2  0  0  0  0
  7  8  1  0  0  0  0
  8  9  1  0  0  0  0
  8 24  2  0  0  0  0
  9 10  1  0  0  0  0
 10 11  2  0  0  0  0
 10 12  1  0  0  0  0
 12 13  1  0  0  0  0
 13 14  1  0  0  0  0
 14 15  1  0  0  0  0
 15 16  2  0  0  0  0
 16 17  1  0  0  0  0
 17 18  2  0  0  0  0
 18 19  1  0  0  0  0
 19 20  2  0  0  0  0
 20 21  1  0  0  0  0
 21 22  2  0  0  0  0
 22 23  1  0  0  0  0
 22 17  1  0  0  0  0
 23 15  1  0  0  0  0
 24  4  1  0  0  0  0
M  END
>  <CHROM.1>
-1.65301010,-178.94095067,45.21015382,-179.28990639,-87.46486134,138.08105512
42.34258602,-44.08944646,3.68336005,-2.81521390,-1.22475523,-2.15242791

>  <Name>
design_11

>  <RI>
0

>  <Rbt.Current_Directory>
/home/ziqiaoxu/icml18-jtnn/VAEdesign

>  <Rbt.Executable>
rbdock ($Id: //depot/dev/client3/rdock/2013.1/src/exe/rbdock.cxx#4 $)

>  <Rbt.Library>
libRbt.so (2013.1, Build901 2013/11/27)

>  <Rbt.Parameter_File>
/export/apps/rDock/src/rDock_2013.1_src//data/scripts/dock.prm

>  <Rbt.Receptor>
/home/ziqiaoxu/icml18-jtnn/VAEdesign/targets/RdRp-SARS-CoV-2/pocket_docking.prm

>  <SCORE>
-25.7132

>  <SCORE.INTER>
-25.3086

>  <SCORE.INTER.CONST>
1

>  <SCORE.INTER.POLAR>
-3.32865

>  <SCORE.INTER.REPUL>
0.021434

>  <SCORE.INTER.ROT>
6

>  <SCORE.INTER.VDW>
-25.4983

>  <SCORE.INTER.norm>
-1.05452

>  <SCORE.INTRA>
-0.404609

>  <SCORE.INTRA.DIHEDRAL>
2.24229

>  <SCORE.INTRA.DIHEDRAL.0>
2.78865

>  <SCORE.INTRA.POLAR>
0

>  <SCORE.INTRA.POLAR.0>
0

>  <SCORE.INTRA.REPUL>
0

>  <SCORE.INTRA.REPUL.0>
0

>  <SCORE.INTRA.VDW>
-1.52575

>  <SCORE.INTRA.VDW.0>
1.3918

>  <SCORE.INTRA.norm>
-0.0168587

>  <SCORE.RESTR>
0

>  <SCORE.RESTR.CAVITY>
0

>  <SCORE.RESTR.norm>
0

>  <SCORE.SYSTEM>
0

>  <SCORE.SYSTEM.CONST>
0

>  <SCORE.SYSTEM.DIHEDRAL>
0

>  <SCORE.SYSTEM.norm>
0

>  <SCORE.heavy>
24

>  <SCORE.norm>
-1.07138

$$$$
design_4
 OpenBabel05252019093D

 24 26  0  0  0  0  0  0  0  0999 V2000
   40.0817  -46.2070   10.4410 N   0  0  0  0  0  0  0  0  0  0  0  0
   40.4888  -45.6397    9.2032 C   0  0  0  0  0  0  0  0  0  0  0  0
   41.0563  -44.5222    9.1642 O   0  0  0  0  0  0  0  0  0  0  0  0
   40.2278  -46.3932    7.9853 C   0  0  0  0  0  0  0  0  0  0  0  0
   39.6459  -47.6396    8.0801 C   0  0  0  0  0  0  0  0  0  0  0  0
   39.3777  -48.3935    6.9590 C   0  0  0  0  0  0  0  0  0  0  0  0
   39.7119  -47.8585    5.7310 C   0  0  0  0  0  0  0  0  0  0  0  0
   40.2930  -46.6209    5.5898 C   0  0  0  0  0  0  0  0  0  0  0  0
   40.6554  -46.0346    4.2963 C   0  0  0  0  0  0  0  0  0  0  0  0
   41.8579  -46.0786    3.9051 O   0  0  0  0  0  0  0  0  0  0  0  0
   39.7060  -45.4172    3.4625 N   0  0  0  0  0  0  0  0  0  0  0  0
   40.1015  -44.8536    2.2001 C   0  0  0  0  0  0  0  0  0  0  0  0
   40.9730  -43.6263    2.3430 C   0  0  0  0  0  0  0  0  0  0  0  0
   42.2903  -43.9142    1.7161 C   0  0  0  0  0  0  0  0  0  0  0  0
   42.8827  -42.7015    1.0470 C   0  0  0  0  0  0  0  0  0  0  0  0
   43.8815  -42.5870    0.2187 N   0  0  0  0  0  0  0  0  0  0  0  0
   44.2409  -41.4287   -0.2529 C   0  0  0  0  0  0  0  0  0  0  0  0
   45.2963  -41.1870   -1.1470 C   0  0  0  0  0  0  0  0  0  0  0  0
   45.5693  -39.9281   -1.5639 C   0  0  0  0  0  0  0  0  0  0  0  0
   44.8649  -38.8190   -1.1645 C   0  0  0  0  0  0  0  0  0  0  0  0
   43.8263  -39.0356   -0.2880 C   0  0  0  0  0  0  0  0  0  0  0  0
   43.5259  -40.3342    0.1573 C   0  0  0  0  0  0  0  0  0  0  0  0
   42.3735  -41.0570    1.2049 S   0  0  0  0  0  0  0  0  0  0  0  0
   40.5418  -45.9041    6.7421 C   0  0  0  0  0  0  0  0  0  0  0  0
  1  2  1  0  0  0  0
  2  3  2  0  0  0  0
  2  4  1  0  0  0  0
  4  5  2  0  0  0  0
  5  6  1  0  0  0  0
  6  7  2  0  0  0  0
  7  8  1  0  0  0  0
  8  9  1  0  0  0  0
  8 24  2  0  0  0  0
  9 10  2  0  0  0  0
  9 11  1  0  0  0  0
 11 12  1  0  0  0  0
 12 13  1  0  0  0  0
 13 14  1  0  0  0  0
 14 15  1  0  0  0  0
 15 16  2  0  0  0  0
 16 17  1  0  0  0  0
 17 18  2  0  0  0  0
 18 19  1  0  0  0  0
 19 20  2  0  0  0  0
 20 21  1  0  0  0  0
 21 22  2  0  0  0  0
 22 23  1  0  0  0  0
 22 17  1  0  0  0  0
 23 15  1  0  0  0  0
 24  4  1  0  0  0  0
M  END
>  <CHROM.1>
-2.37471251,-100.19202084,-68.65821984,118.34249620,144.94344949,-167.13186257
41.80600121,-43.88729547,3.53464106,-2.42835019,-1.06762723,-1.72579643

>  <Name>
design_4

>  <RI>
0

>  <Rbt.Current_Directory>
/home/ziqiaoxu/icml18-jtnn/VAEdesign

>  <Rbt.Executable>
rbdock ($Id: //depot/dev/client3/rdock/2013.1/src/exe/rbdock.cxx#4 $)

>  <Rbt.Library>
libRbt.so (2013.1, Build901 2013/11/27)

>  <Rbt.Parameter_File>
/export/apps/rDock/src/rDock_2013.1_src//data/scripts/dock.prm

>  <Rbt.Receptor>
/home/ziqiaoxu/icml18-jtnn/VAEdesign/targets/RdRp-SARS-CoV-2/pocket_docking.prm

>  <SCORE>
-11.5921

>  <SCORE.INTER>
-21.6059

>  <SCORE.INTER.CONST>
1

>  <SCORE.INTER.POLAR>
-2.33422

>  <SCORE.INTER.REPUL>
0.0856195

>  <SCORE.INTER.ROT>
6

>  <SCORE.INTER.VDW>
-25.4976

>  <SCORE.INTER.norm>
-0.900245

>  <SCORE.INTRA>
10.0138

>  <SCORE.INTRA.DIHEDRAL>
21.3202

>  <SCORE.INTRA.DIHEDRAL.0>
2.54814

>  <SCORE.INTRA.POLAR>
0

>  <SCORE.INTRA.POLAR.0>
0

>  <SCORE.INTRA.REPUL>
0

>  <SCORE.INTRA.REPUL.0>
0

>  <SCORE.INTRA.VDW>
-0.646343

>  <SCORE.INTRA.VDW.0>
-0.5237

>  <SCORE.INTRA.norm>
0.41724

>  <SCORE.RESTR>
0

>  <SCORE.RESTR.CAVITY>
0

>  <SCORE.RESTR.norm>
0

>  <SCORE.SYSTEM>
0

>  <SCORE.SYSTEM.CONST>
0

>  <SCORE.SYSTEM.DIHEDRAL>
0

>  <SCORE.SYSTEM.norm>
0

>  <SCORE.heavy>
24

>  <SCORE.norm>
-0.483005

$$$$
design_14
 OpenBabel05252019093D

 24 25  0  0  0  0  0  0  0  0999 V2000
   43.8306  -42.2122    0.2226 C   0  0  0  0  0  0  0  0  0  0  0  0
   42.4820  -42.1289    0.8012 C   0  0  0  0  0  0  0  0  0  0  0  0
   42.0996  -40.6954    1.0784 C   0  0  0  0  0  0  0  0  0  0  0  0
   42.1520  -42.9735    1.9937 C   0  0  0  0  0  0  0  0  0  0  0  0
   42.1753  -44.4436    1.7808 C   0  0  1  0  0  0  0  0  0  0  0  0
   43.2810  -45.0937    1.3555 N   0  0  0  0  0  0  0  0  0  0  0  0
   43.5625  -46.0236    0.3539 C   0  0  0  0  0  0  0  0  0  0  0  0
   44.9562  -46.4502    0.1598 N   0  0  0  0  0  0  0  0  0  0  0  0
   42.7339  -46.5333   -0.4260 O   0  0  0  0  0  0  0  0  0  0  0  0
   41.4051  -45.0758    2.9255 C   0  0  0  0  0  0  0  0  0  0  0  0
   40.1134  -45.1123    2.9259 O   0  0  0  0  0  0  0  0  0  0  0  0
   42.0845  -45.6445    3.9866 N   0  0  0  0  0  0  0  0  0  0  0  0
   41.6502  -46.4137    5.0679 C   0  0  0  0  0  0  0  0  0  0  0  0
   41.9901  -45.9935    6.4190 C   0  0  0  0  0  0  0  0  0  0  0  0
   42.9964  -45.1213    6.6601 C   0  0  0  0  0  0  0  0  0  0  0  0
   43.1393  -44.6185    7.9608 C   0  0  0  0  0  0  0  0  0  0  0  0
   42.3020  -44.9890    8.9603 C   0  0  0  0  0  0  0  0  0  0  0  0
   41.2736  -45.8799    8.7347 C   0  0  0  0  0  0  0  0  0  0  0  0
   41.1386  -46.3766    7.4477 C   0  0  0  0  0  0  0  0  0  0  0  0
   40.2585  -47.4408    7.1452 N   0  0  0  0  0  0  0  0  0  0  0  0
   39.2075  -47.8085    7.9817 C   0  0  0  0  0  0  0  0  0  0  0  0
   38.5828  -48.9140    7.4767 C   0  0  0  0  0  0  0  0  0  0  0  0
   39.2680  -49.2153    6.3246 C   0  0  0  0  0  0  0  0  0  0  0  0
   40.2730  -48.2921    6.1703 N   0  0  0  0  0  0  0  0  0  0  0  0
  1  2  1  0  0  0  0
  2  3  1  0  0  0  0
  2  4  1  0  0  0  0
  5  4  1  1  0  0  0
  5  6  1  0  0  0  0
  5 10  1  0  0  0  0
  6  7  1  0  0  0  0
  7  8  1  0  0  0  0
  7  9  2  0  0  0  0
 10 11  2  0  0  0  0
 10 12  1  0  0  0  0
 12 13  1  0  0  0  0
 13 14  1  0  0  0  0
 14 15  2  0  0  0  0
 15 16  1  0  0  0  0
 16 17  2  0  0  0  0
 17 18  1  0  0  0  0
 18 19  2  0  0  0  0
 19 20  1  0  0  0  0
 19 14  1  0  0  0  0
 20 21  1  0  0  0  0
 21 22  2  0  0  0  0
 22 23  1  0  0  0  0
 23 24  2  0  0  0  0
 24 20  1  0  0  0  0
M  END
>  <CHROM.1>
-64.38346847,58.67605881,-130.46713089,80.01132539,-126.13157828,-18.59057244
-169.77585205,41.83543392,-45.52444434,4.16535503,-0.59736782,1.17811907
1.08258003

>  <Name>
design_14

>  <RI>
0

>  <Rbt.Current_Directory>
/home/ziqiaoxu/icml18-jtnn/VAEdesign

>  <Rbt.Executable>
rbdock ($Id: //depot/dev/client3/rdock/2013.1/src/exe/rbdock.cxx#4 $)

>  <Rbt.Library>
libRbt.so (2013.1, Build901 2013/11/27)

>  <Rbt.Parameter_File>
/export/apps/rDock/src/rDock_2013.1_src//data/scripts/dock.prm

>  <Rbt.Receptor>
/home/ziqiaoxu/icml18-jtnn/VAEdesign/targets/RdRp-SARS-CoV-2/pocket_docking.prm

>  <SCORE>
-19.4586

>  <SCORE.INTER>
-16.1385

>  <SCORE.INTER.CONST>
1

>  <SCORE.INTER.POLAR>
-0.894427

>  <SCORE.INTER.REPUL>
0

>  <SCORE.INTER.ROT>
7

>  <SCORE.INTER.VDW>
-25.4974

>  <SCORE.INTER.norm>
-0.672436

>  <SCORE.INTRA>
-3.32012

>  <SCORE.INTRA.DIHEDRAL>
-10.3582

>  <SCORE.INTRA.DIHEDRAL.0>
17.7886

>  <SCORE.INTRA.POLAR>
0

>  <SCORE.INTRA.POLAR.0>
0

>  <SCORE.INTRA.REPUL>
0

>  <SCORE.INTRA.REPUL.0>
0

>  <SCORE.INTRA.VDW>
1.85896

>  <SCORE.INTRA.VDW.0>
-2.44935

>  <SCORE.INTRA.norm>
-0.138338

>  <SCORE.RESTR>
0

>  <SCORE.RESTR.CAVITY>
0

>  <SCORE.RESTR.norm>
0

>  <SCORE.SYSTEM>
0

>  <SCORE.SYSTEM.CONST>
0

>  <SCORE.SYSTEM.DIHEDRAL>
0

>  <SCORE.SYSTEM.norm>
0

>  <SCORE.heavy>
24

>  <SCORE.norm>
-0.810775

$$$$
design_15
 OpenBabel05252019093D

 24 26  0  0  0  0  0  0  0  0999 V2000
   41.2428  -44.5573   10.5603 N   0  0  0  0  0  0  0  0  0  0  0  0
   40.6538  -45.6587    9.8530 C   0  0  0  0  0  0  0  0  0  0  0  0
   39.9066  -46.3766   10.5300 O   0  0  0  0  0  0  0  0  0  0  0  0
   40.9041  -45.9042    8.5002 N   0  0  0  0  0  0  0  0  0  0  0  0
   40.4348  -46.8926    7.6439 C   0  0  0  0  0  0  0  0  0  0  0  0
   39.4964  -47.8162    8.1443 C   0  0  0  0  0  0  0  0  0  0  0  0
   38.8909  -48.7645    7.3349 C   0  0  0  0  0  0  0  0  0  0  0  0
   39.2122  -48.8075    6.0056 C   0  0  0  0  0  0  0  0  0  0  0  0
   40.1257  -47.9160    5.4994 C   0  0  0  0  0  0  0  0  0  0  0  0
   40.7512  -46.9439    6.3217 C   0  0  0  0  0  0  0  0  0  0  0  0
   41.7694  -46.1154    5.7322 C   0  0  0  0  0  0  0  0  0  0  0  0
   42.4131  -45.2982    6.4118 O   0  0  0  0  0  0  0  0  0  0  0  0
   42.1387  -46.1412    4.3432 N   0  0  0  0  0  0  0  0  0  0  0  0
   43.1706  -45.3078    3.7876 C   0  0  0  0  0  0  0  0  0  0  0  0
   43.6829  -45.6898    2.4806 C   0  0  0  0  0  0  0  0  0  0  0  0
   42.9625  -45.5999    1.3186 C   0  0  0  0  0  0  0  0  0  0  0  0
   43.5689  -45.9689    0.1318 C   0  0  0  0  0  0  0  0  0  0  0  0
   44.8711  -46.4164    0.1215 C   0  0  0  0  0  0  0  0  0  0  0  0
   45.6257  -46.5189    1.2712 C   0  0  0  0  0  0  0  0  0  0  0  0
   45.0023  -46.1469    2.4405 C   0  0  0  0  0  0  0  0  0  0  0  0
   45.7622  -46.2485    3.6103 O   0  0  0  0  0  0  0  0  0  0  0  0
   47.1672  -46.4302    3.5635 C   0  0  0  0  0  0  0  0  0  0  0  0
   47.4660  -47.4756    2.4904 C   0  0  0  0  0  0  0  0  0  0  0  0
   46.9440  -46.9726    1.2531 O   0  0  0  0  0  0  0  0  0  0  0  0
  1  2  1  0  0  0  0
  2  3  2  0  0  0  0
  2  4  1  0  0  0  0
  4  5  1  0  0  0  0
  5  6  2  0  0  0  0
  6  7  1  0  0  0  0
  7  8  2  0  0  0  0
  8  9  1  0  0  0  0
  9 10  2  0  0  0  0
 10 11  1  0  0  0  0
 10  5  1  0  0  0  0
 11 12  2  0  0  0  0
 11 13  1  0  0  0  0
 13 14  1  0  0  0  0
 14 15  1  0  0  0  0
 15 16  2  0  0  0  0
 16 17  1  0  0  0  0
 17 18  2  0  0  0  0
 18 19  1  0  0  0  0
 19 20  2  0  0  0  0
 20 21  1  0  0  0  0
 20 15  1  0  0  0  0
 21 22  1  0  0  0  0
 22 23  1  0  0  0  0
 23 24  1  0  0  0  0
 24 19  1  0  0  0  0
M  END
>  <CHROM.1>
2.91318093,-0.31499073,163.67909152,69.29112253,42.71998656,-46.46613867
5.03890377,-2.27201342,-0.33774252,-1.81808838

>  <Name>
design_15

>  <RI>
0

>  <Rbt.Current_Directory>
/home/ziqiaoxu/icml18-jtnn/VAEdesign

>  <Rbt.Executable>
rbdock ($Id: //depot/dev/client3/rdock/2013.1/src/exe/rbdock.cxx#4 $)

>  <Rbt.Library>
libRbt.so (2013.1, Build901 2013/11/27)

>  <Rbt.Parameter_File>
/export/apps/rDock/src/rDock_2013.1_src//data/scripts/dock.prm

>  <Rbt.Receptor>
/home/ziqiaoxu/icml18-jtnn/VAEdesign/targets/RdRp-SARS-CoV-2/pocket_docking.prm

>  <SCORE>
-20.6919

>  <SCORE.INTER>
-19.7622

>  <SCORE.INTER.CONST>
1

>  <SCORE.INTER.POLAR>
-1.08972

>  <SCORE.INTER.REPUL>
0.00796428

>  <SCORE.INTER.ROT>
4

>  <SCORE.INTER.VDW>
-25.497

>  <SCORE.INTER.norm>
-0.823427

>  <SCORE.INTRA>
-0.929624

>  <SCORE.INTRA.DIHEDRAL>
-1.89844

>  <SCORE.INTRA.DIHEDRAL.0>
3.89989

>  <SCORE.INTRA.POLAR>
-0.0784079

>  <SCORE.INTRA.POLAR.0>
0

>  <SCORE.INTRA.REPUL>
0

>  <SCORE.INTRA.REPUL.0>
0

>  <SCORE.INTRA.VDW>
0.286184

>  <SCORE.INTRA.VDW.0>
-1.35657

>  <SCORE.INTRA.norm>
-0.0387343

>  <SCORE.RESTR>
0

>  <SCORE.RESTR.CAVITY>
0

>  <SCORE.RESTR.norm>
0

>  <SCORE.SYSTEM>
0

>  <SCORE.SYSTEM.CONST>
0

>  <SCORE.SYSTEM.DIHEDRAL>
0

>  <SCORE.SYSTEM.norm>
0

>  <SCORE.heavy>
24

>  <SCORE.norm>
-0.862161

$$$$
design_10
 OpenBabel05252019093D

 26 28  0  0  0  0  0  0  0  0999 V2000
   43.1216  -44.4237    8.0629 C   0  0  0  0  0  0  0  0  0  0  0  0
   41.9127  -45.2796    8.1827 C   0  0  0  0  0  0  0  0  0  0  0  0
   41.2920  -45.3138    9.3941 C   0  0  0  0  0  0  0  0  0  0  0  0
   40.1461  -46.1121    9.5479 C   0  0  0  0  0  0  0  0  0  0  0  0
   39.7065  -46.8129    8.4944 C   0  0  0  0  0  0  0  0  0  0  0  0
   40.3157  -46.7860    7.2873 C   0  0  0  0  0  0  0  0  0  0  0  0
   39.7440  -47.5686    6.1851 C   0  0  0  0  0  0  0  0  0  0  0  0
   39.5996  -49.0486    6.5833 C   0  0  0  0  0  0  0  0  0  0  0  0
   38.3523  -47.1189    5.7899 C   0  0  0  0  0  0  0  0  0  0  0  0
   41.4719  -46.0075    7.0539 C   0  0  0  0  0  0  0  0  0  0  0  0
   42.1058  -45.9070    5.9430 N   0  0  0  0  0  0  0  0  0  0  0  0
   42.9330  -45.7438    4.8250 C   0  0  0  0  0  0  0  0  0  0  0  0
   44.1295  -45.3393    5.1265 O   0  0  0  0  0  0  0  0  0  0  0  0
   42.6649  -45.9432    3.4750 N   0  0  0  0  0  0  0  0  0  0  0  0
   43.6836  -45.7054    2.4523 C   0  0  0  0  0  0  0  0  0  0  0  0
   43.3323  -44.4366    1.7741 C   0  0  0  0  0  0  0  0  0  0  0  0
   42.0588  -43.9004    1.9409 C   0  0  0  0  0  0  0  0  0  0  0  0
   41.6199  -42.7449    1.3627 C   0  0  0  0  0  0  0  0  0  0  0  0
   42.5121  -42.0984    0.5790 N   0  0  0  0  0  0  0  0  0  0  0  0
   43.7592  -42.5318    0.3577 C   0  0  0  0  0  0  0  0  0  0  0  0
   44.6941  -41.8205   -0.4469 N   0  0  0  0  0  0  0  0  0  0  0  0
   45.8624  -42.2122   -0.9877 C   0  0  0  0  0  0  0  0  0  0  0  0
   46.4380  -41.1761   -1.7107 C   0  0  0  0  0  0  0  0  0  0  0  0
   45.5696  -40.1516   -1.5841 N   0  0  0  0  0  0  0  0  0  0  0  0
   44.5386  -40.5389   -0.8332 C   0  0  0  0  0  0  0  0  0  0  0  0
   44.1878  -43.7216    0.9603 C   0  0  0  0  0  0  0  0  0  0  0  0
  1  2  1  0  0  0  0
  2  3  2  0  0  0  0
  3  4  1  0  0  0  0
  4  5  2  0  0  0  0
  5  6  1  0  0  0  0
  6  7  1  0  0  0  0
  6 10  2  0  0  0  0
  7  8  1  0  0  0  0
  7  9  1  0  0  0  0
 10 11  1  0  0  0  0
 10  2  1  0  0  0  0
 11 12  1  0  0  0  0
 12 13  2  0  0  0  0
 12 14  1  0  0  0  0
 14 15  1  0  0  0  0
 15 16  1  0  0  0  0
 16 17  2  0  0  0  0
 17 18  1  0  0  0  0
 18 19  2  0  0  0  0
 19 20  1  0  0  0  0
 20 21  1  0  0  0  0
 20 26  2  0  0  0  0
 21 22  1  0  0  0  0
 22 23  2  0  0  0  0
 23 24  1  0  0  0  0
 24 25  2  0  0  0  0
 25 21  1  0  0  0  0
 26 16  1  0  0  0  0
M  END
>  <CHROM.1>
-55.42910704,21.47776529,-105.21923708,-15.11838900,-165.11042657,42.51994974
-44.58621859,3.84905422,-2.13913114,-0.72288596,-1.43377525

>  <Name>
design_10

>  <RI>
0

>  <Rbt.Current_Directory>
/home/ziqiaoxu/icml18-jtnn/VAEdesign

>  <Rbt.Executable>
rbdock ($Id: //depot/dev/client3/rdock/2013.1/src/exe/rbdock.cxx#4 $)

>  <Rbt.Library>
libRbt.so (2013.1, Build901 2013/11/27)

>  <Rbt.Parameter_File>
/export/apps/rDock/src/rDock_2013.1_src//data/scripts/dock.prm

>  <Rbt.Receptor>
/home/ziqiaoxu/icml18-jtnn/VAEdesign/targets/RdRp-SARS-CoV-2/pocket_docking.prm

>  <SCORE>
-25.6224

>  <SCORE.INTER>
-18.5362

>  <SCORE.INTER.CONST>
1

>  <SCORE.INTER.POLAR>
-1.01771

>  <SCORE.INTER.REPUL>
0.00384677

>  <SCORE.INTER.ROT>
5

>  <SCORE.INTER.VDW>
-25.4952

>  <SCORE.INTER.norm>
-0.71293

>  <SCORE.INTRA>
-7.08619

>  <SCORE.INTRA.DIHEDRAL>
-19.8723

>  <SCORE.INTRA.DIHEDRAL.0>
24.9839

>  <SCORE.INTRA.POLAR>
0

>  <SCORE.INTRA.POLAR.0>
0

>  <SCORE.INTRA.REPUL>
0

>  <SCORE.INTRA.REPUL.0>
0

>  <SCORE.INTRA.VDW>
2.84995

>  <SCORE.INTRA.VDW.0>
1.93438

>  <SCORE.INTRA.norm>
-0.272546

>  <SCORE.RESTR>
0

>  <SCORE.RESTR.CAVITY>
0

>  <SCORE.RESTR.norm>
0

>  <SCORE.SYSTEM>
0

>  <SCORE.SYSTEM.CONST>
0

>  <SCORE.SYSTEM.DIHEDRAL>
0

>  <SCORE.SYSTEM.norm>
0

>  <SCORE.heavy>
26

>  <SCORE.norm>
-0.985476

$$$$
design_1
 OpenBabel05252019093D

 23 24  0  0  0  0  0  0  0  0999 V2000
   43.7781  -46.5802   -0.7043 N   0  0  0  0  0  0  0  0  0  0  0  0
   43.9602  -46.1806    0.6505 C   0  0  0  0  0  0  0  0  0  0  0  0
   42.9470  -45.4878    1.3156 C   0  0  0  0  0  0  0  0  0  0  0  0
   43.1451  -45.1115    2.6215 C   0  0  0  0  0  0  0  0  0  0  0  0
   44.3455  -45.4407    3.2135 C   0  0  0  0  0  0  0  0  0  0  0  0
   45.3659  -46.1220    2.5931 C   0  0  0  0  0  0  0  0  0  0  0  0
   46.6435  -46.4937    3.2529 C   0  0  0  0  0  0  0  0  0  0  0  0
   47.4101  -45.3939    3.8710 C   0  0  0  0  0  0  0  0  0  0  0  0
   46.7795  -44.5566    4.8695 C   0  0  0  0  0  0  0  0  0  0  0  0
   46.8070  -43.3074    4.8235 O   0  0  0  0  0  0  0  0  0  0  0  0
   46.0653  -45.1070    6.0034 N   0  0  0  0  0  0  0  0  0  0  0  0
   45.4358  -44.3066    7.0009 C   0  0  0  0  0  0  0  0  0  0  0  0
   44.1011  -44.7967    7.4197 C   0  0  0  0  0  0  0  0  0  0  0  0
   43.6461  -44.3521    8.6577 C   0  0  0  0  0  0  0  0  0  0  0  0
   42.4011  -44.7659    9.1273 C   0  0  0  0  0  0  0  0  0  0  0  0
   41.6165  -45.6139    8.3725 C   0  0  0  0  0  0  0  0  0  0  0  0
   40.0725  -46.1050    8.9954 S   0  0  0  0  0  0  0  0  0  0  0  0
   40.0958  -46.1763   10.7220 N   0  0  0  0  0  0  0  0  0  0  0  0
   39.0490  -45.0842    8.5768 O   0  0  0  0  0  0  0  0  0  0  0  0
   39.7032  -47.4595    8.4625 O   0  0  0  0  0  0  0  0  0  0  0  0
   42.1009  -46.0287    7.1593 C   0  0  0  0  0  0  0  0  0  0  0  0
   43.3234  -45.6458    6.6561 C   0  0  0  0  0  0  0  0  0  0  0  0
   45.1433  -46.4970    1.2579 C   0  0  0  0  0  0  0  0  0  0  0  0
  1  2  1  0  0  0  0
  2  3  2  0  0  0  0
  3  4  1  0  0  0  0
  4  5  2  0  0  0  0
  5  6  1  0  0  0  0
  6  7  1  0  0  0  0
  6 23  2  0  0  0  0
  7  8  1  0  0  0  0
  8  9  1  0  0  0  0
  9 10  2  0  0  0  0
  9 11  1  0  0  0  0
 11 12  1  0  0  0  0
 12 13  1  0  0  0  0
 13 14  2  0  0  0  0
 14 15  1  0  0  0  0
 15 16  2  0  0  0  0
 16 17  1  0  0  0  0
 16 21  1  0  0  0  0
 17 18  1  0  0  0  0
 17 19  2  0  0  0  0
 17 20  2  0  0  0  0
 21 22  2  0  0  0  0
 22 13  1  0  0  0  0
 23  2  1  0  0  0  0
M  END
>  <CHROM.1>
-55.10870093,56.18292466,-130.30461533,137.92255246,159.21208712,-30.82722769
155.33584301,43.39340163,-45.55279106,5.68310361,0.94910733,-0.30364695,-1.75895680

>  <Name>
design_1

>  <RI>
0

>  <Rbt.Current_Directory>
/home/ziqiaoxu/icml18-jtnn/VAEdesign

>  <Rbt.Executable>
rbdock ($Id: //depot/dev/client3/rdock/2013.1/src/exe/rbdock.cxx#4 $)

>  <Rbt.Library>
libRbt.so (2013.1, Build901 2013/11/27)

>  <Rbt.Parameter_File>
/export/apps/rDock/src/rDock_2013.1_src//data/scripts/dock.prm

>  <Rbt.Receptor>
/home/ziqiaoxu/icml18-jtnn/VAEdesign/targets/RdRp-SARS-CoV-2/pocket_docking.prm

>  <SCORE>
-28.2456

>  <SCORE.INTER>
-26.8853

>  <SCORE.INTER.CONST>
1

>  <SCORE.INTER.POLAR>
-4.05643

>  <SCORE.INTER.REPUL>
0

>  <SCORE.INTER.ROT>
7

>  <SCORE.INTER.VDW>
-25.4934

>  <SCORE.INTER.norm>
-1.16892

>  <SCORE.INTRA>
-1.36038

>  <SCORE.INTRA.DIHEDRAL>
-1.50058

>  <SCORE.INTRA.DIHEDRAL.0>
7.36109

>  <SCORE.INTRA.POLAR>
0

>  <SCORE.INTRA.POLAR.0>
0

>  <SCORE.INTRA.REPUL>
0

>  <SCORE.INTRA.REPUL.0>
0

>  <SCORE.INTRA.VDW>
-0.610095

>  <SCORE.INTRA.VDW.0>
-2.12996

>  <SCORE.INTRA.norm>
-0.0591471

>  <SCORE.RESTR>
0

>  <SCORE.RESTR.CAVITY>
0

>  <SCORE.RESTR.norm>
0

>  <SCORE.SYSTEM>
0

>  <SCORE.SYSTEM.CONST>
0

>  <SCORE.SYSTEM.DIHEDRAL>
0

>  <SCORE.SYSTEM.norm>
0

>  <SCORE.heavy>
23

>  <SCORE.norm>
-1.22807

$$$$
design_10
 OpenBabel05252019093D

 25 28  0  0  0  0  0  0  0  0999 V2000
   45.7376  -43.2215    9.5236 C   0  0  0  0  0  0  0  0  0  0  0  0
   45.1687  -44.0780    8.4141 C   0  0  0  0  0  0  0  0  0  0  0  0
   44.0431  -44.7636    8.4014 N   0  0  0  0  0  0  0  0  0  0  0  0
   43.7088  -45.4420    7.3392 C   0  0  0  0  0  0  0  0  0  0  0  0
   42.4211  -46.2361    7.2625 C   0  0  0  0  0  0  0  0  0  0  0  0
   41.2461  -45.4389    7.2183 N   0  0  0  0  0  0  0  0  0  0  0  0
   40.6638  -45.0988    8.4479 C   0  0  0  0  0  0  0  0  0  0  0  0
   39.2303  -45.5585    8.6091 C   0  0  0  0  0  0  0  0  0  0  0  0
   38.8363  -46.4207    7.6253 O   0  0  0  0  0  0  0  0  0  0  0  0
   38.9794  -45.9234    6.3208 C   0  0  1  0  0  0  0  0  0  0  0  0
   38.0437  -44.8236    6.1362 C   0  0  0  0  0  0  0  0  0  0  0  0
   38.5299  -43.5482    6.3415 C   0  0  0  0  0  0  0  0  0  0  0  0
   37.7220  -42.4494    6.2280 C   0  0  0  0  0  0  0  0  0  0  0  0
   36.3521  -42.5902    5.8944 C   0  0  0  0  0  0  0  0  0  0  0  0
   35.5974  -41.4125    5.7633 N   0  0  0  0  0  0  0  0  0  0  0  0
   34.8971  -40.3196    5.6416 C   0  0  0  0  0  0  0  0  0  0  0  0
   35.0072  -39.3982    4.7389 O   0  0  0  0  0  0  0  0  0  0  0  0
   33.7846  -40.0228    6.6666 C   0  0  0  0  0  0  0  0  0  0  0  0
   33.3049  -41.1237    7.5118 C   0  0  0  0  0  0  0  0  0  0  0  0
   34.3053  -40.1572    8.0859 C   0  0  0  0  0  0  0  0  0  0  0  0
   35.8782  -43.8485    5.6940 C   0  0  0  0  0  0  0  0  0  0  0  0
   36.7186  -44.9423    5.8141 C   0  0  0  0  0  0  0  0  0  0  0  0
   40.4138  -45.6542    6.0907 C   0  0  0  0  0  0  0  0  0  0  0  0
   44.5732  -45.3996    6.2712 C   0  0  0  0  0  0  0  0  0  0  0  0
   45.8136  -44.3827    6.8681 S   0  0  0  0  0  0  0  0  0  0  0  0
  1  2  1  0  0  0  0
  2  3  2  0  0  0  0
  3  4  1  0  0  0  0
  4  5  1  0  0  0  0
  4 24  2  0  0  0  0
  5  6  1  0  0  0  0
  6  7  1  0  0  0  0
  7  8  1  0  0  0  0
  8  9  1  0  0  0  0
  9 10  1  0  0  0  0
 10 11  1  1  0  0  0
 10 23  1  0  0  0  0
 11 12  2  0  0  0  0
 12 13  1  0  0  0  0
 13 14  2  0  0  0  0
 14 15  1  0  0  0  0
 14 21  1  0  0  0  0
 15 16  1  0  0  0  0
 16 17  2  0  0  0  0
 16 18  1  0  0  0  0
 18 19  1  0  0  0  0
 19 20  1  0  0  0  0
 20 18  1  0  0  0  0
 21 22  2  0  0  0  0
 22 11  1  0  0  0  0
 23  6  1  0  0  0  0
 24 25  1  0  0  0  0
 25  2  1  0  0  0  0
M  END
>  <CHROM.1>
69.29796337,-89.70025247,95.44704715,-1.43912246,-16.43026542,39.56778643
-43.71378635,6.92746536,-0.35580692,-0.14861376,0.02161365

>  <Name>
design_10

>  <RI>
0

>  <Rbt.Current_Directory>
/home/ziqiaoxu/icml18-jtnn/VAEdesign

>  <Rbt.Executable>
rbdock ($Id: //depot/dev/client3/rdock/2013.1/src/exe/rbdock.cxx#4 $)

>  <Rbt.Library>
libRbt.so (2013.1, Build901 2013/11/27)

>  <Rbt.Parameter_File>
/export/apps/rDock/src/rDock_2013.1_src//data/scripts/dock.prm

>  <Rbt.Receptor>
/home/ziqiaoxu/icml18-jtnn/VAEdesign/targets/RdRp-SARS-CoV-2/pocket_docking.prm

>  <SCORE>
-19.3922

>  <SCORE.INTER>
-19.2266

>  <SCORE.INTER.CONST>
1

>  <SCORE.INTER.POLAR>
-1.2161

>  <SCORE.INTER.REPUL>
0

>  <SCORE.INTER.ROT>
5

>  <SCORE.INTER.VDW>
-25.4918

>  <SCORE.INTER.norm>
-0.769062

>  <SCORE.INTRA>
-0.170745

>  <SCORE.INTRA.DIHEDRAL>
0.776853

>  <SCORE.INTRA.DIHEDRAL.0>
9.85058

>  <SCORE.INTRA.POLAR>
0

>  <SCORE.INTRA.POLAR.0>
0

>  <SCORE.INTRA.REPUL>
0

>  <SCORE.INTRA.REPUL.0>
0

>  <SCORE.INTRA.VDW>
-0.559172

>  <SCORE.INTRA.VDW.0>
-0.304651

>  <SCORE.INTRA.norm>
-0.00682981

>  <SCORE.RESTR>
0.00508667

>  <SCORE.RESTR.CAVITY>
0.00508667

>  <SCORE.RESTR.norm>
0.000203467

>  <SCORE.SYSTEM>
0

>  <SCORE.SYSTEM.CONST>
0

>  <SCORE.SYSTEM.DIHEDRAL>
0

>  <SCORE.SYSTEM.norm>
0

>  <SCORE.heavy>
25

>  <SCORE.norm>
-0.775689

$$$$
design_10
 OpenBabel05252019093D

 27 29  0  0  0  0  0  0  0  0999 V2000
   43.3925  -45.3689    7.0143 C   0  0  0  0  0  0  0  0  0  0  0  0
   42.0796  -45.7800    6.5663 N   0  0  0  0  0  0  0  0  0  0  0  0
   41.7015  -45.8228    5.1615 C   0  0  0  0  0  0  0  0  0  0  0  0
   40.3396  -45.3342    4.8602 C   0  0  0  0  0  0  0  0  0  0  0  0
   39.8812  -45.2965    3.4781 C   0  0  0  0  0  0  0  0  0  0  0  0
   40.3900  -44.3550    2.5801 N   0  0  0  0  0  0  0  0  0  0  0  0
   41.5714  -43.7505    2.2357 C   0  0  0  0  0  0  0  0  0  0  0  0
   42.6820  -43.9161    2.7103 O   0  0  0  0  0  0  0  0  0  0  0  0
   41.4939  -42.7800    1.1604 N   0  0  0  0  0  0  0  0  0  0  0  0
   42.6269  -42.0990    0.6745 C   0  0  0  0  0  0  0  0  0  0  0  0
   42.6575  -40.6456    0.9409 C   0  0  0  0  0  0  0  0  0  0  0  0
   43.4856  -39.7381    0.3558 C   0  0  0  0  0  0  0  0  0  0  0  0
   43.4180  -38.3744    0.6628 C   0  0  0  0  0  0  0  0  0  0  0  0
   42.4955  -37.9202    1.5783 C   0  0  0  0  0  0  0  0  0  0  0  0
   41.6321  -38.8123    2.1973 C   0  0  0  0  0  0  0  0  0  0  0  0
   40.6849  -38.2876    3.1303 N   0  0  0  0  0  0  0  0  0  0  0  0
   40.3667  -37.0353    3.4537 C   0  0  0  0  0  0  0  0  0  0  0  0
   39.3973  -37.1174    4.4037 N   0  0  0  0  0  0  0  0  0  0  0  0
   39.1241  -38.3984    4.6596 C   0  0  0  0  0  0  0  0  0  0  0  0
   39.9268  -39.1124    3.8659 N   0  0  0  0  0  0  0  0  0  0  0  0
   41.7372  -40.1166    1.8687 C   0  0  0  0  0  0  0  0  0  0  0  0
   41.1395  -46.1165    7.6053 C   0  0  0  0  0  0  0  0  0  0  0  0
   40.2380  -47.1358    7.4793 C   0  0  0  0  0  0  0  0  0  0  0  0
   39.3219  -47.4217    8.5055 C   0  0  0  0  0  0  0  0  0  0  0  0
   39.3434  -46.6583    9.6465 C   0  0  0  0  0  0  0  0  0  0  0  0
   40.2326  -45.6240    9.8162 C   0  0  0  0  0  0  0  0  0  0  0  0
   41.1304  -45.3593    8.7863 C   0  0  0  0  0  0  0  0  0  0  0  0
  1  2  1  0  0  0  0
  2  3  1  0  0  0  0
  2 22  1  0  0  0  0
  3  4  1  0  0  0  0
  4  5  1  0  0  0  0
  5  6  1  0  0  0  0
  6  7  1  0  0  0  0
  7  8  2  0  0  0  0
  7  9  1  0  0  0  0
  9 10  1  0  0  0  0
 10 11  1  0  0  0  0
 11 12  2  0  0  0  0
 12 13  1  0  0  0  0
 13 14  2  0  0  0  0
 14 15  1  0  0  0  0
 15 16  1  0  0  0  0
 15 21  2  0  0  0  0
 16 17  1  0  0  0  0
 17 18  2  0  0  0  0
 18 19  1  0  0  0  0
 19 20  2  0  0  0  0
 20 16  1  0  0  0  0
 21 11  1  0  0  0  0
 22 23  2  0  0  0  0
 23 24  1  0  0  0  0
 24 25  2  0  0  0  0
 25 26  1  0  0  0  0
 26 27  2  0  0  0  0
 27 22  1  0  0  0  0
M  END
>  <CHROM.1>
-139.06389408,178.07023225,-71.75009827,40.02784897,-112.58211242,-165.87329303
7.31762002,-142.86159505,41.20555907,-42.56799113,4.25259255,-1.80342468
1.11027705,-0.44844999

>  <Name>
design_10

>  <RI>
0

>  <Rbt.Current_Directory>
/home/ziqiaoxu/icml18-jtnn/VAEdesign

>  <Rbt.Executable>
rbdock ($Id: //depot/dev/client3/rdock/2013.1/src/exe/rbdock.cxx#4 $)

>  <Rbt.Library>
libRbt.so (2013.1, Build901 2013/11/27)

>  <Rbt.Parameter_File>
/export/apps/rDock/src/rDock_2013.1_src//data/scripts/dock.prm

>  <Rbt.Receptor>
/home/ziqiaoxu/icml18-jtnn/VAEdesign/targets/RdRp-SARS-CoV-2/pocket_docking.prm

>  <SCORE>
-24.3475

>  <SCORE.INTER>
-19.5739

>  <SCORE.INTER.CONST>
1

>  <SCORE.INTER.POLAR>
-2.20118

>  <SCORE.INTER.REPUL>
0

>  <SCORE.INTER.ROT>
8

>  <SCORE.INTER.VDW>
-25.4899

>  <SCORE.INTER.norm>
-0.724959

>  <SCORE.INTRA>
-4.77359

>  <SCORE.INTRA.DIHEDRAL>
-7.48713

>  <SCORE.INTRA.DIHEDRAL.0>
18.6067

>  <SCORE.INTRA.POLAR>
0

>  <SCORE.INTRA.POLAR.0>
0

>  <SCORE.INTRA.REPUL>
0

>  <SCORE.INTRA.REPUL.0>
0

>  <SCORE.INTRA.VDW>
-1.03002

>  <SCORE.INTRA.VDW.0>
1.64888

>  <SCORE.INTRA.norm>
-0.176799

>  <SCORE.RESTR>
0

>  <SCORE.RESTR.CAVITY>
0

>  <SCORE.RESTR.norm>
0

>  <SCORE.SYSTEM>
0

>  <SCORE.SYSTEM.CONST>
0

>  <SCORE.SYSTEM.DIHEDRAL>
0

>  <SCORE.SYSTEM.norm>
0

>  <SCORE.heavy>
27

>  <SCORE.norm>
-0.901758

$$$$
design_8
 OpenBabel05252019093D

 22 23  0  0  0  0  0  0  0  0999 V2000
   34.1255  -40.2934    6.6834 C   0  0  0  0  0  0  0  0  0  0  0  0
   34.4567  -41.5533    6.0803 N   0  0  0  0  0  0  0  0  0  0  0  0
   35.7043  -42.1476    6.3383 C   0  0  0  0  0  0  0  0  0  0  0  0
   36.5274  -41.5906    7.0865 O   0  0  0  0  0  0  0  0  0  0  0  0
   36.0276  -43.3885    5.7429 N   0  0  0  0  0  0  0  0  0  0  0  0
   37.2982  -44.0420    5.9761 C   0  0  0  0  0  0  0  0  0  0  0  0
   37.0661  -45.3573    6.5999 C   0  0  0  0  0  0  0  0  0  0  0  0
   36.1963  -46.1389    6.1539 O   0  0  0  0  0  0  0  0  0  0  0  0
   37.8288  -45.7569    7.7197 N   0  0  0  0  0  0  0  0  0  0  0  0
   37.8963  -46.9328    8.5844 C   0  0  0  0  0  0  0  0  0  0  0  0
   39.4069  -46.5209    8.8118 C   0  0  0  0  0  0  0  0  0  0  0  0
   40.2007  -47.1815    7.7732 C   0  0  0  0  0  0  0  0  0  0  0  0
   41.3761  -46.8799    7.3621 C   0  0  0  0  0  0  0  0  0  0  0  0
   42.3362  -45.8577    7.6954 C   0  0  0  0  0  0  0  0  0  0  0  0
   42.1998  -45.0021    8.7521 C   0  0  0  0  0  0  0  0  0  0  0  0
   43.2263  -44.0908    9.0304 C   0  0  0  0  0  0  0  0  0  0  0  0
   44.3638  -44.0351    8.2674 C   0  0  0  0  0  0  0  0  0  0  0  0
   44.5341  -44.8807    7.1941 C   0  0  0  0  0  0  0  0  0  0  0  0
   45.7299  -44.8252    6.3870 C   0  0  0  0  0  0  0  0  0  0  0  0
   46.6832  -44.7733    5.7320 N   0  0  0  0  0  0  0  0  0  0  0  0
   43.5213  -45.7655    6.9371 C   0  0  0  0  0  0  0  0  0  0  0  0
   38.8840  -45.1482    8.4888 C   0  0  0  0  0  0  0  0  0  0  0  0
  1  2  1  0  0  0  0
  2  3  1  0  0  0  0
  3  4  2  0  0  0  0
  3  5  1  0  0  0  0
  5  6  1  0  0  0  0
  6  7  1  0  0  0  0
  7  8  2  0  0  0  0
  7  9  1  0  0  0  0
  9 10  1  0  0  0  0
 10 11  1  0  0  0  0
 11 12  1  0  0  0  0
 11 22  1  0  0  0  0
 12 13  2  0  0  0  0
 13 14  1  0  0  0  0
 14 15  2  0  0  0  0
 15 16  1  0  0  0  0
 16 17  2  0  0  0  0
 17 18  1  0  0  0  0
 18 19  1  0  0  0  0
 18 21  2  0  0  0  0
 19 20  3  0  0  0  0
 21 14  1  0  0  0  0
 22  9  1  0  0  0  0
M  END
>  <CHROM.1>
119.40325930,46.40505619,160.42924737,8.48484160,39.60354674,-44.58495304
7.21466027,-2.85826490,0.01767687,2.87145064

>  <Name>
design_8

>  <RI>
0

>  <Rbt.Current_Directory>
/home/ziqiaoxu/icml18-jtnn/VAEdesign

>  <Rbt.Executable>
rbdock ($Id: //depot/dev/client3/rdock/2013.1/src/exe/rbdock.cxx#4 $)

>  <Rbt.Library>
libRbt.so (2013.1, Build901 2013/11/27)

>  <Rbt.Parameter_File>
/export/apps/rDock/src/rDock_2013.1_src//data/scripts/dock.prm

>  <Rbt.Receptor>
/home/ziqiaoxu/icml18-jtnn/VAEdesign/targets/RdRp-SARS-CoV-2/pocket_docking.prm

>  <SCORE>
-20.4123

>  <SCORE.INTER>
-19.4206

>  <SCORE.INTER.CONST>
1

>  <SCORE.INTER.POLAR>
-0.979796

>  <SCORE.INTER.REPUL>
0

>  <SCORE.INTER.ROT>
4

>  <SCORE.INTER.VDW>
-25.4893

>  <SCORE.INTER.norm>
-0.882754

>  <SCORE.INTRA>
-0.991759

>  <SCORE.INTRA.DIHEDRAL>
-0.909842

>  <SCORE.INTRA.DIHEDRAL.0>
5.08145

>  <SCORE.INTRA.POLAR>
0

>  <SCORE.INTRA.POLAR.0>
0

>  <SCORE.INTRA.REPUL>
0

>  <SCORE.INTRA.REPUL.0>
0

>  <SCORE.INTRA.VDW>
-0.536838

>  <SCORE.INTRA.VDW.0>
-0.788197

>  <SCORE.INTRA.norm>
-0.0450799

>  <SCORE.RESTR>
0

>  <SCORE.RESTR.CAVITY>
0

>  <SCORE.RESTR.norm>
0

>  <SCORE.SYSTEM>
0

>  <SCORE.SYSTEM.CONST>
0

>  <SCORE.SYSTEM.DIHEDRAL>
0

>  <SCORE.SYSTEM.norm>
0

>  <SCORE.heavy>
22

>  <SCORE.norm>
-0.927834

$$$$
design_9
 OpenBabel05252019093D

 26 28  0  0  0  0  0  0  0  0999 V2000
   43.4325  -40.5678    0.9897 O   0  0  0  0  0  0  0  0  0  0  0  0
   42.2125  -40.7772    1.2131 C   0  0  0  0  0  0  0  0  0  0  0  0
   41.8351  -42.1738    1.1620 N   0  0  0  0  0  0  0  0  0  0  0  0
   42.7881  -43.1992    0.8941 C   0  0  0  0  0  0  0  0  0  0  0  0
   42.4156  -44.4999    1.5138 C   0  0  0  0  0  0  0  0  0  0  0  0
   42.4650  -44.3979    3.0349 C   0  0  0  0  0  0  0  0  0  0  0  0
   41.6516  -45.3419    3.7304 N   0  0  0  0  0  0  0  0  0  0  0  0
   41.6691  -45.3373    5.1307 C   0  0  0  0  0  0  0  0  0  0  0  0
   42.3785  -44.5201    5.7872 O   0  0  0  0  0  0  0  0  0  0  0  0
   40.8696  -46.2513    5.9112 C   0  0  0  0  0  0  0  0  0  0  0  0
   40.4472  -47.3958    5.2218 C   0  0  0  0  0  0  0  0  0  0  0  0
   39.7647  -48.4040    5.8803 C   0  0  0  0  0  0  0  0  0  0  0  0
   39.4931  -48.3042    7.1946 C   0  0  0  0  0  0  0  0  0  0  0  0
   39.8912  -47.1896    7.9063 C   0  0  0  0  0  0  0  0  0  0  0  0
   39.5909  -47.0861    9.2397 C   0  0  0  0  0  0  0  0  0  0  0  0
   39.9662  -45.9552    9.9599 C   0  0  0  0  0  0  0  0  0  0  0  0
   40.6371  -44.9648    9.2918 C   0  0  0  0  0  0  0  0  0  0  0  0
   40.9555  -45.0361    7.9546 C   0  0  0  0  0  0  0  0  0  0  0  0
   40.5860  -46.1603    7.2335 C   0  0  0  0  0  0  0  0  0  0  0  0
   41.3067  -39.7370    1.4938 N   0  0  0  0  0  0  0  0  0  0  0  0
   41.5398  -38.3716    1.6079 C   0  0  0  0  0  0  0  0  0  0  0  0
   42.7926  -37.8196    1.5488 C   0  0  0  0  0  0  0  0  0  0  0  0
   42.9885  -36.4368    1.7084 C   0  0  0  0  0  0  0  0  0  0  0  0
   41.9070  -35.6296    1.9256 C   0  0  0  0  0  0  0  0  0  0  0  0
   40.6306  -36.1371    1.9925 C   0  0  0  0  0  0  0  0  0  0  0  0
   40.4808  -37.4898    1.8320 C   0  0  0  0  0  0  0  0  0  0  0  0
  1  2  2  0  0  0  0
  2  3  1  0  0  0  0
  2 20  1  0  0  0  0
  3  4  1  0  0  0  0
  4  5  1  0  0  0  0
  5  6  1  0  0  0  0
  6  7  1  0  0  0  0
  7  8  1  0  0  0  0
  8  9  2  0  0  0  0
  8 10  1  0  0  0  0
 10 11  2  0  0  0  0
 11 12  1  0  0  0  0
 12 13  2  0  0  0  0
 13 14  1  0  0  0  0
 14 15  2  0  0  0  0
 15 16  1  0  0  0  0
 16 17  2  0  0  0  0
 17 18  1  0  0  0  0
 18 19  2  0  0  0  0
 19 10  1  0  0  0  0
 19 14  1  0  0  0  0
 20 21  1  0  0  0  0
 21 22  2  0  0  0  0
 22 23  1  0  0  0  0
 23 24  2  0  0  0  0
 24 25  1  0  0  0  0
 25 26  2  0  0  0  0
 26 21  1  0  0  0  0
M  END
>  <CHROM.1>
151.79737390,-66.33339184,156.07889769,178.31103767,20.50936511,-4.99122903
41.37254824,-43.02129556,4.19888421,-1.04995271,-1.25295621,3.03482938

>  <Name>
design_9

>  <RI>
0

>  <Rbt.Current_Directory>
/home/ziqiaoxu/icml18-jtnn/VAEdesign

>  <Rbt.Executable>
rbdock ($Id: //depot/dev/client3/rdock/2013.1/src/exe/rbdock.cxx#4 $)

>  <Rbt.Library>
libRbt.so (2013.1, Build901 2013/11/27)

>  <Rbt.Parameter_File>
/export/apps/rDock/src/rDock_2013.1_src//data/scripts/dock.prm

>  <Rbt.Receptor>
/home/ziqiaoxu/icml18-jtnn/VAEdesign/targets/RdRp-SARS-CoV-2/pocket_docking.prm

>  <SCORE>
-25.1713

>  <SCORE.INTER>
-24.1881

>  <SCORE.INTER.CONST>
1

>  <SCORE.INTER.POLAR>
-2.97146

>  <SCORE.INTER.REPUL>
0

>  <SCORE.INTER.ROT>
6

>  <SCORE.INTER.VDW>
-25.4852

>  <SCORE.INTER.norm>
-0.930313

>  <SCORE.INTRA>
-0.983191

>  <SCORE.INTRA.DIHEDRAL>
-4.24294

>  <SCORE.INTRA.DIHEDRAL.0>
9.93222

>  <SCORE.INTRA.POLAR>
0

>  <SCORE.INTRA.POLAR.0>
0

>  <SCORE.INTRA.REPUL>
0

>  <SCORE.INTRA.REPUL.0>
0

>  <SCORE.INTRA.VDW>
1.13828

>  <SCORE.INTRA.VDW.0>
-1.06081

>  <SCORE.INTRA.norm>
-0.037815

>  <SCORE.RESTR>
0

>  <SCORE.RESTR.CAVITY>
0

>  <SCORE.RESTR.norm>
0

>  <SCORE.SYSTEM>
0

>  <SCORE.SYSTEM.CONST>
0

>  <SCORE.SYSTEM.DIHEDRAL>
0

>  <SCORE.SYSTEM.norm>
0

>  <SCORE.heavy>
26

>  <SCORE.norm>
-0.968128

$$$$
design_19
 OpenBabel05252019093D

 25 28  0  0  0  0  0  0  0  0999 V2000
   43.6677  -45.2824    7.2566 C   0  0  0  0  0  0  0  0  0  0  0  0
   42.3956  -45.9919    6.9025 C   0  0  0  0  0  0  0  0  0  0  0  0
   41.9378  -46.0646    5.6120 C   0  0  0  0  0  0  0  0  0  0  0  0
   40.7737  -46.7144    5.2903 C   0  0  0  0  0  0  0  0  0  0  0  0
   40.0434  -47.3114    6.2961 C   0  0  0  0  0  0  0  0  0  0  0  0
   38.7933  -47.9956    5.9623 C   0  0  0  0  0  0  0  0  0  0  0  0
   38.8529  -49.2443    5.8757 O   0  0  0  0  0  0  0  0  0  0  0  0
   37.5591  -47.3701    5.7369 N   0  0  0  0  0  0  0  0  0  0  0  0
   37.3669  -45.9595    5.8078 C   0  0  0  0  0  0  0  0  0  0  0  0
   38.2416  -45.0359    6.1558 N   0  0  0  0  0  0  0  0  0  0  0  0
   37.8932  -43.7908    6.1642 C   0  0  0  0  0  0  0  0  0  0  0  0
   38.8569  -42.7234    6.5520 C   0  0  0  0  0  0  0  0  0  0  0  0
   40.1036  -43.0126    7.0669 C   0  0  0  0  0  0  0  0  0  0  0  0
   40.9873  -42.0068    7.4224 C   0  0  0  0  0  0  0  0  0  0  0  0
   40.6183  -40.6809    7.2604 C   0  0  0  0  0  0  0  0  0  0  0  0
   39.3816  -40.3703    6.7495 C   0  0  0  0  0  0  0  0  0  0  0  0
   38.5284  -41.4035    6.4067 C   0  0  0  0  0  0  0  0  0  0  0  0
   38.9753  -39.0325    6.5720 O   0  0  0  0  0  0  0  0  0  0  0  0
   40.0177  -38.0658    6.6157 C   0  0  0  0  0  0  0  0  0  0  0  0
   40.8603  -38.3661    7.8344 C   0  0  0  0  0  0  0  0  0  0  0  0
   41.4719  -39.6348    7.6033 O   0  0  0  0  0  0  0  0  0  0  0  0
   36.6020  -43.4890    5.8022 C   0  0  0  0  0  0  0  0  0  0  0  0
   35.9701  -45.0445    5.4699 S   0  0  0  0  0  0  0  0  0  0  0  0
   40.5044  -47.2363    7.5833 C   0  0  0  0  0  0  0  0  0  0  0  0
   41.6450  -46.5903    7.8384 N   0  0  0  0  0  0  0  0  0  0  0  0
  1  2  1  0  0  0  0
  2  3  2  0  0  0  0
  3  4  1  0  0  0  0
  4  5  2  0  0  0  0
  5  6  1  0  0  0  0
  5 24  1  0  0  0  0
  6  7  2  0  0  0  0
  6  8  1  0  0  0  0
  8  9  1  0  0  0  0
  9 10  2  0  0  0  0
 10 11  1  0  0  0  0
 11 12  1  0  0  0  0
 11 22  2  0  0  0  0
 12 13  2  0  0  0  0
 13 14  1  0  0  0  0
 14 15  2  0  0  0  0
 15 16  1  0  0  0  0
 16 17  2  0  0  0  0
 16 18  1  0  0  0  0
 17 12  1  0  0  0  0
 18 19  1  0  0  0  0
 19 20  1  0  0  0  0
 20 21  1  0  0  0  0
 21 15  1  0  0  0  0
 22 23  1  0  0  0  0
 23  9  1  0  0  0  0
 24 25  2  0  0  0  0
 25  2  1  0  0  0  0
M  END
>  <CHROM.1>
100.33224621,-4.18117645,-7.75503404,39.50421203,-43.96056635,6.50553079
-1.69996024,-0.25613961,0.09345313

>  <Name>
design_19

>  <RI>
0

>  <Rbt.Current_Directory>
/home/ziqiaoxu/icml18-jtnn/VAEdesign

>  <Rbt.Executable>
rbdock ($Id: //depot/dev/client3/rdock/2013.1/src/exe/rbdock.cxx#4 $)

>  <Rbt.Library>
libRbt.so (2013.1, Build901 2013/11/27)

>  <Rbt.Parameter_File>
/export/apps/rDock/src/rDock_2013.1_src//data/scripts/dock.prm

>  <Rbt.Receptor>
/home/ziqiaoxu/icml18-jtnn/VAEdesign/targets/RdRp-SARS-CoV-2/pocket_docking.prm

>  <SCORE>
-18.3915

>  <SCORE.INTER>
-17.436

>  <SCORE.INTER.CONST>
1

>  <SCORE.INTER.POLAR>
-0.10455

>  <SCORE.INTER.REPUL>
0

>  <SCORE.INTER.ROT>
3

>  <SCORE.INTER.VDW>
-25.4805

>  <SCORE.INTER.norm>
-0.69744

>  <SCORE.INTRA>
-0.95555

>  <SCORE.INTRA.DIHEDRAL>
0.123533

>  <SCORE.INTRA.DIHEDRAL.0>
12.7983

>  <SCORE.INTRA.POLAR>
0

>  <SCORE.INTRA.POLAR.0>
0

>  <SCORE.INTRA.REPUL>
0

>  <SCORE.INTRA.REPUL.0>
0

>  <SCORE.INTRA.VDW>
-1.01732

>  <SCORE.INTRA.VDW.0>
-1.6165

>  <SCORE.INTRA.norm>
-0.038222

>  <SCORE.RESTR>
0

>  <SCORE.RESTR.CAVITY>
0

>  <SCORE.RESTR.norm>
0

>  <SCORE.SYSTEM>
0

>  <SCORE.SYSTEM.CONST>
0

>  <SCORE.SYSTEM.DIHEDRAL>
0

>  <SCORE.SYSTEM.norm>
0

>  <SCORE.heavy>
25

>  <SCORE.norm>
-0.735662

$$$$
design_1
 OpenBabel05252019093D

 24 27  0  0  0  0  0  0  0  0999 V2000
   44.4576  -43.4977   12.3100 C   0  0  0  0  0  0  0  0  0  0  0  0
   44.8102  -43.7536   10.8716 C   0  0  0  0  0  0  0  0  0  0  0  0
   45.9288  -43.3735   10.2306 N   0  0  0  0  0  0  0  0  0  0  0  0
   45.8583  -43.8030    8.9360 C   0  0  0  0  0  0  0  0  0  0  0  0
   46.7069  -43.6763    7.9134 N   0  0  0  0  0  0  0  0  0  0  0  0
   46.3288  -44.2334    6.7176 C   0  0  0  0  0  0  0  0  0  0  0  0
   45.1527  -44.8976    6.5234 C   0  0  0  0  0  0  0  0  0  0  0  0
   44.2755  -45.0168    7.6137 C   0  0  0  0  0  0  0  0  0  0  0  0
   42.9895  -45.6435    7.5582 C   0  0  0  0  0  0  0  0  0  0  0  0
   42.7235  -46.2456    6.4555 O   0  0  0  0  0  0  0  0  0  0  0  0
   41.9930  -45.6945    8.5288 N   0  0  0  0  0  0  0  0  0  0  0  0
   40.7393  -46.3157    8.4517 C   0  0  0  0  0  0  0  0  0  0  0  0
   39.7638  -45.9940    9.4119 C   0  0  0  0  0  0  0  0  0  0  0  0
   38.5158  -46.5635    9.4308 C   0  0  0  0  0  0  0  0  0  0  0  0
   38.1652  -47.4845    8.4980 C   0  0  0  0  0  0  0  0  0  0  0  0
   39.0798  -47.8381    7.5341 C   0  0  0  0  0  0  0  0  0  0  0  0
   38.6837  -48.8116    6.5628 C   0  0  0  0  0  0  0  0  0  0  0  0
   38.3609  -49.6014    5.7621 N   0  0  0  0  0  0  0  0  0  0  0  0
   40.3492  -47.2495    7.5270 C   0  0  0  0  0  0  0  0  0  0  0  0
   44.7157  -44.4362    8.7845 N   0  0  0  0  0  0  0  0  0  0  0  0
   44.0798  -44.4074    9.9548 N   0  0  0  0  0  0  0  0  0  0  0  0
   45.0614  -45.3960    5.1558 C   0  0  0  0  0  0  0  0  0  0  0  0
   46.5190  -45.3602    4.6695 C   0  0  0  0  0  0  0  0  0  0  0  0
   47.1044  -44.2195    5.4363 C   0  0  0  0  0  0  0  0  0  0  0  0
  1  2  1  0  0  0  0
  2  3  1  0  0  0  0
  3  4  2  0  0  0  0
  4  5  1  0  0  0  0
  5  6  2  0  0  0  0
  6  7  1  0  0  0  0
  7  8  2  0  0  0  0
  7 22  1  0  0  0  0
  8  9  1  0  0  0  0
  8 20  1  0  0  0  0
  9 10  2  0  0  0  0
  9 11  1  0  0  0  0
 11 12  1  0  0  0  0
 12 13  2  0  0  0  0
 13 14  1  0  0  0  0
 14 15  2  0  0  0  0
 15 16  1  0  0  0  0
 16 17  1  0  0  0  0
 16 19  2  0  0  0  0
 17 18  3  0  0  0  0
 19 12  1  0  0  0  0
 20 21  1  0  0  0  0
 20  4  1  0  0  0  0
 21  2  2  0  0  0  0
 22 23  1  0  0  0  0
 23 24  1  0  0  0  0
 24  6  1  0  0  0  0
M  END
>  <CHROM.1>
7.55254561,-165.43209052,43.05852074,-45.54230036,7.95597888,0.21954526,0.43847501
1.18222974

>  <Name>
design_1

>  <RI>
0

>  <Rbt.Current_Directory>
/home/ziqiaoxu/icml18-jtnn/VAEdesign

>  <Rbt.Executable>
rbdock ($Id: //depot/dev/client3/rdock/2013.1/src/exe/rbdock.cxx#4 $)

>  <Rbt.Library>
libRbt.so (2013.1, Build901 2013/11/27)

>  <Rbt.Parameter_File>
/export/apps/rDock/src/rDock_2013.1_src//data/scripts/dock.prm

>  <Rbt.Receptor>
/home/ziqiaoxu/icml18-jtnn/VAEdesign/targets/RdRp-SARS-CoV-2/pocket_docking.prm

>  <SCORE>
-20.7077

>  <SCORE.INTER>
-18.0795

>  <SCORE.INTER.CONST>
1

>  <SCORE.INTER.POLAR>
0

>  <SCORE.INTER.REPUL>
0

>  <SCORE.INTER.ROT>
2

>  <SCORE.INTER.VDW>
-25.4795

>  <SCORE.INTER.norm>
-0.753314

>  <SCORE.INTRA>
-2.62821

>  <SCORE.INTRA.DIHEDRAL>
-1.45748

>  <SCORE.INTRA.DIHEDRAL.0>
2.59676

>  <SCORE.INTRA.POLAR>
-0.498291

>  <SCORE.INTRA.POLAR.0>
0

>  <SCORE.INTRA.REPUL>
0

>  <SCORE.INTRA.REPUL.0>
0

>  <SCORE.INTRA.VDW>
-0.205279

>  <SCORE.INTRA.VDW.0>
-0.135816

>  <SCORE.INTRA.norm>
-0.109509

>  <SCORE.RESTR>
0

>  <SCORE.RESTR.CAVITY>
0

>  <SCORE.RESTR.norm>
0

>  <SCORE.SYSTEM>
0

>  <SCORE.SYSTEM.CONST>
0

>  <SCORE.SYSTEM.DIHEDRAL>
0

>  <SCORE.SYSTEM.norm>
0

>  <SCORE.heavy>
24

>  <SCORE.norm>
-0.862823

$$$$
design_16
 OpenBabel05252019093D

 23 26  0  0  0  0  0  0  0  0999 V2000
   41.1785  -44.5855   10.7372 C   0  0  0  0  0  0  0  0  0  0  0  0
   40.6870  -45.5608    9.7356 C   0  0  0  0  0  0  0  0  0  0  0  0
   39.5203  -46.2249    9.8233 N   0  0  0  0  0  0  0  0  0  0  0  0
   39.4144  -47.0160    8.7399 C   0  0  0  0  0  0  0  0  0  0  0  0
   38.3985  -47.9000    8.3598 C   0  0  0  0  0  0  0  0  0  0  0  0
   38.5223  -48.6076    7.1886 C   0  0  0  0  0  0  0  0  0  0  0  0
   39.6444  -48.4411    6.3990 C   0  0  0  0  0  0  0  0  0  0  0  0
   40.6336  -47.5644    6.7930 C   0  0  0  0  0  0  0  0  0  0  0  0
   40.5390  -46.8418    7.9597 C   0  0  0  0  0  0  0  0  0  0  0  0
   41.3645  -45.9129    8.5830 C   0  0  0  0  0  0  0  0  0  0  0  0
   42.6502  -45.4413    8.0978 C   0  0  0  0  0  0  0  0  0  0  0  0
   43.4457  -44.5571    8.7264 N   0  0  0  0  0  0  0  0  0  0  0  0
   44.5280  -44.3377    8.0397 O   0  0  0  0  0  0  0  0  0  0  0  0
   44.4652  -45.0669    6.9563 C   0  0  0  0  0  0  0  0  0  0  0  0
   45.5386  -45.0789    5.9156 C   0  0  0  0  0  0  0  0  0  0  0  0
   44.9628  -44.8401    4.5397 C   0  0  0  0  0  0  0  0  0  0  0  0
   45.9922  -44.7539    3.4585 C   0  0  0  0  0  0  0  0  0  0  0  0
   46.7184  -45.9820    3.3055 N   0  0  0  0  0  0  0  0  0  0  0  0
   46.3347  -46.9970    2.4928 C   0  0  0  0  0  0  0  0  0  0  0  0
   47.2680  -48.0018    2.6043 C   0  0  0  0  0  0  0  0  0  0  0  0
   48.1976  -47.5550    3.4926 C   0  0  0  0  0  0  0  0  0  0  0  0
   47.8602  -46.3254    3.9177 N   0  0  0  0  0  0  0  0  0  0  0  0
   43.3143  -45.7606    6.9651 N   0  0  0  0  0  0  0  0  0  0  0  0
  1  2  1  0  0  0  0
  2  3  1  0  0  0  0
  3  4  1  0  0  0  0
  4  5  2  0  0  0  0
  5  6  1  0  0  0  0
  6  7  2  0  0  0  0
  7  8  1  0  0  0  0
  8  9  2  0  0  0  0
  9 10  1  0  0  0  0
  9  4  1  0  0  0  0
 10 11  1  0  0  0  0
 10  2  2  0  0  0  0
 11 12  2  0  0  0  0
 12 13  1  0  0  0  0
 13 14  1  0  0  0  0
 14 15  1  0  0  0  0
 14 23  2  0  0  0  0
 15 16  1  0  0  0  0
 16 17  1  0  0  0  0
 17 18  1  0  0  0  0
 18 19  1  0  0  0  0
 19 20  2  0  0  0  0
 20 21  1  0  0  0  0
 21 22  2  0  0  0  0
 22 18  1  0  0  0  0
 23 11  1  0  0  0  0
M  END
>  <CHROM.1>
1.13721455,-128.69793931,176.38167601,63.07744644,88.82339139,43.15388849
-46.18781429,6.64330467,-2.69034151,-0.47002873,-2.25462323

>  <Name>
design_16

>  <RI>
0

>  <Rbt.Current_Directory>
/home/ziqiaoxu/icml18-jtnn/VAEdesign

>  <Rbt.Executable>
rbdock ($Id: //depot/dev/client3/rdock/2013.1/src/exe/rbdock.cxx#4 $)

>  <Rbt.Library>
libRbt.so (2013.1, Build901 2013/11/27)

>  <Rbt.Parameter_File>
/export/apps/rDock/src/rDock_2013.1_src//data/scripts/dock.prm

>  <Rbt.Receptor>
/home/ziqiaoxu/icml18-jtnn/VAEdesign/targets/RdRp-SARS-CoV-2/pocket_docking.prm

>  <SCORE>
-24.7033

>  <SCORE.INTER>
-18.5467

>  <SCORE.INTER.CONST>
1

>  <SCORE.INTER.POLAR>
-1.0198

>  <SCORE.INTER.REPUL>
0

>  <SCORE.INTER.ROT>
5

>  <SCORE.INTER.VDW>
-25.4794

>  <SCORE.INTER.norm>
-0.80638

>  <SCORE.INTRA>
-6.15651

>  <SCORE.INTRA.DIHEDRAL>
-11.3042

>  <SCORE.INTRA.DIHEDRAL.0>
15.1408

>  <SCORE.INTRA.POLAR>
0

>  <SCORE.INTRA.POLAR.0>
0

>  <SCORE.INTRA.REPUL>
0

>  <SCORE.INTRA.REPUL.0>
0

>  <SCORE.INTRA.VDW>
-0.5044

>  <SCORE.INTRA.VDW.0>
-1.03455

>  <SCORE.INTRA.norm>
-0.267674

>  <SCORE.RESTR>
0

>  <SCORE.RESTR.CAVITY>
0

>  <SCORE.RESTR.norm>
0

>  <SCORE.SYSTEM>
0

>  <SCORE.SYSTEM.CONST>
0

>  <SCORE.SYSTEM.DIHEDRAL>
0

>  <SCORE.SYSTEM.norm>
0

>  <SCORE.heavy>
23

>  <SCORE.norm>
-1.07405

$$$$
design_12
 OpenBabel05252019093D

 22 23  0  0  0  0  0  0  0  0999 V2000
   39.2296  -49.3501    6.0305 N   0  0  0  0  0  0  0  0  0  0  0  0
   39.5038  -48.5184    6.8059 C   0  0  0  0  0  0  0  0  0  0  0  0
   39.8450  -47.5102    7.7684 C   0  0  0  0  0  0  0  0  0  0  0  0
   39.0625  -47.2713    8.8688 C   0  0  0  0  0  0  0  0  0  0  0  0
   39.3630  -46.3075    9.8098 C   0  0  0  0  0  0  0  0  0  0  0  0
   40.4771  -45.5498    9.6588 C   0  0  0  0  0  0  0  0  0  0  0  0
   40.9059  -44.4686   10.5556 C   0  0  0  0  0  0  0  0  0  0  0  0
   40.0866  -43.2539   10.4513 C   0  0  0  0  0  0  0  0  0  0  0  0
   40.1894  -42.4671    9.2260 C   0  0  0  0  0  0  0  0  0  0  0  0
   40.6847  -42.8972    8.1696 O   0  0  0  0  0  0  0  0  0  0  0  0
   39.6945  -41.1112    9.2134 N   0  0  0  0  0  0  0  0  0  0  0  0
   39.7881  -40.3252    8.0146 C   0  0  0  0  0  0  0  0  0  0  0  0
   40.2431  -38.9369    8.4377 C   0  0  0  0  0  0  0  0  0  0  0  0
   40.8144  -38.1601    7.2866 C   0  0  0  0  0  0  0  0  0  0  0  0
   39.8220  -37.9931    6.2741 N   0  0  0  0  0  0  0  0  0  0  0  0
   39.8941  -38.9240    5.1786 C   0  0  0  0  0  0  0  0  0  0  0  0
   40.9886  -38.5675    4.1979 C   0  0  0  0  0  0  0  0  0  0  0  0
   41.0673  -37.1886    4.0079 O   0  0  0  0  0  0  0  0  0  0  0  0
   39.8816  -36.5548    4.3556 C   0  0  0  0  0  0  0  0  0  0  0  0
   39.6957  -36.6220    5.8292 C   0  0  0  0  0  0  0  0  0  0  0  0
   41.2971  -45.7694    8.5465 C   0  0  0  0  0  0  0  0  0  0  0  0
   40.9798  -46.7286    7.6293 C   0  0  0  0  0  0  0  0  0  0  0  0
  1  2  3  0  0  0  0
  2  3  1  0  0  0  0
  3  4  2  0  0  0  0
  4  5  1  0  0  0  0
  5  6  2  0  0  0  0
  6  7  1  0  0  0  0
  6 21  1  0  0  0  0
  7  8  1  0  0  0  0
  8  9  1  0  0  0  0
  9 10  2  0  0  0  0
  9 11  1  0  0  0  0
 11 12  1  0  0  0  0
 12 13  1  0  0  0  0
 13 14  1  0  0  0  0
 14 15  1  0  0  0  0
 15 16  1  0  0  0  0
 16 17  1  0  0  0  0
 17 18  1  0  0  0  0
 18 19  1  0  0  0  0
 19 20  1  0  0  0  0
 20 15  1  0  0  0  0
 21 22  2  0  0  0  0
 22  3  1  0  0  0  0
M  END
>  <CHROM.1>
-72.53764182,-69.56480642,16.35594760,-137.21585608,161.02594334,60.84880071
-98.26554905,40.17022273,-42.28977041,7.51220258,2.33690893,1.52107094,2.08826822

>  <Name>
design_12

>  <RI>
0

>  <Rbt.Current_Directory>
/home/ziqiaoxu/icml18-jtnn/VAEdesign

>  <Rbt.Executable>
rbdock ($Id: //depot/dev/client3/rdock/2013.1/src/exe/rbdock.cxx#4 $)

>  <Rbt.Library>
libRbt.so (2013.1, Build901 2013/11/27)

>  <Rbt.Parameter_File>
/export/apps/rDock/src/rDock_2013.1_src//data/scripts/dock.prm

>  <Rbt.Receptor>
/home/ziqiaoxu/icml18-jtnn/VAEdesign/targets/RdRp-SARS-CoV-2/pocket_docking.prm

>  <SCORE>
-15.1604

>  <SCORE.INTER>
-15.874

>  <SCORE.INTER.CONST>
1

>  <SCORE.INTER.POLAR>
-0.840809

>  <SCORE.INTER.REPUL>
0.0125247

>  <SCORE.INTER.ROT>
7

>  <SCORE.INTER.VDW>
-25.4779

>  <SCORE.INTER.norm>
-0.721545

>  <SCORE.INTRA>
0.713537

>  <SCORE.INTRA.DIHEDRAL>
3.4442

>  <SCORE.INTRA.DIHEDRAL.0>
3.43795

>  <SCORE.INTRA.POLAR>
0

>  <SCORE.INTRA.POLAR.0>
0

>  <SCORE.INTRA.REPUL>
0

>  <SCORE.INTRA.REPUL.0>
0

>  <SCORE.INTRA.VDW>
-1.00856

>  <SCORE.INTRA.VDW.0>
0.283165

>  <SCORE.INTRA.norm>
0.0324335

>  <SCORE.RESTR>
0

>  <SCORE.RESTR.CAVITY>
0

>  <SCORE.RESTR.norm>
0

>  <SCORE.SYSTEM>
0

>  <SCORE.SYSTEM.CONST>
0

>  <SCORE.SYSTEM.DIHEDRAL>
0

>  <SCORE.SYSTEM.norm>
0

>  <SCORE.heavy>
22

>  <SCORE.norm>
-0.689111

$$$$
design_4
 OpenBabel05252019093D

 24 25  0  0  0  0  0  0  0  0999 V2000
   44.6074  -46.3012   -0.4327 C   0  0  0  0  0  0  0  0  0  0  0  0
   45.8703  -45.8198   -0.0611 O   0  0  0  0  0  0  0  0  0  0  0  0
   46.4162  -46.1837    1.1615 C   0  0  0  0  0  0  0  0  0  0  0  0
   45.7644  -45.9051    2.3511 C   0  0  0  0  0  0  0  0  0  0  0  0
   46.2769  -46.2505    3.5634 C   0  0  0  0  0  0  0  0  0  0  0  0
   45.6253  -45.9740    4.7874 N   0  0  0  0  0  0  0  0  0  0  0  0
   44.4300  -45.2942    5.0077 C   0  0  0  0  0  0  0  0  0  0  0  0
   43.6722  -44.7785    4.1534 O   0  0  0  0  0  0  0  0  0  0  0  0
   43.9759  -45.1505    6.4377 C   0  0  0  0  0  0  0  0  0  0  0  0
   42.7134  -45.8328    6.5738 N   0  0  0  0  0  0  0  0  0  0  0  0
   42.0724  -45.8271    7.8326 C   0  0  0  0  0  0  0  0  0  0  0  0
   42.5813  -45.2481    8.8050 O   0  0  0  0  0  0  0  0  0  0  0  0
   40.8092  -46.5065    7.9802 C   0  0  0  0  0  0  0  0  0  0  0  0
   40.4300  -47.4873    7.0985 C   0  0  0  0  0  0  0  0  0  0  0  0
   39.2036  -48.1468    7.2417 C   0  0  0  0  0  0  0  0  0  0  0  0
   38.3737  -47.8069    8.2758 C   0  0  0  0  0  0  0  0  0  0  0  0
   38.7330  -46.8278    9.1708 C   0  0  0  0  0  0  0  0  0  0  0  0
   39.9557  -46.1849    9.0104 C   0  0  0  0  0  0  0  0  0  0  0  0
   40.4222  -44.9231   10.1610 Cl  0  0  0  0  0  0  0  0  0  0  0  0
   47.5146  -46.9116    3.5451 C   0  0  0  0  0  0  0  0  0  0  0  0
   48.1972  -47.2096    2.4038 C   0  0  0  0  0  0  0  0  0  0  0  0
   49.4245  -47.8668    2.4157 O   0  0  0  0  0  0  0  0  0  0  0  0
   50.3268  -47.6455    3.4789 C   0  0  0  0  0  0  0  0  0  0  0  0
   47.6246  -46.8330    1.2101 C   0  0  0  0  0  0  0  0  0  0  0  0
  1  2  1  0  0  0  0
  2  3  1  0  0  0  0
  3  4  2  0  0  0  0
  4  5  1  0  0  0  0
  5  6  1  0  0  0  0
  5 20  2  0  0  0  0
  6  7  1  0  0  0  0
  7  8  2  0  0  0  0
  7  9  1  0  0  0  0
  9 10  1  0  0  0  0
 10 11  1  0  0  0  0
 11 12  2  0  0  0  0
 11 13  1  0  0  0  0
 13 14  2  0  0  0  0
 14 15  1  0  0  0  0
 15 16  2  0  0  0  0
 16 17  1  0  0  0  0
 17 18  2  0  0  0  0
 18 19  1  0  0  0  0
 18 13  1  0  0  0  0
 20 21  1  0  0  0  0
 21 22  1  0  0  0  0
 21 24  2  0  0  0  0
 22 23  1  0  0  0  0
 24  3  1  0  0  0  0
M  END
>  <CHROM.1>
-58.65017546,-2.48965947,-117.81409678,-179.33839819,21.02666251,-33.40464128
43.82250890,-46.26704741,5.33910155,0.76100505,-0.01189628,-1.65954266

>  <Name>
design_4

>  <RI>
0

>  <Rbt.Current_Directory>
/home/ziqiaoxu/icml18-jtnn/VAEdesign

>  <Rbt.Executable>
rbdock ($Id: //depot/dev/client3/rdock/2013.1/src/exe/rbdock.cxx#4 $)

>  <Rbt.Library>
libRbt.so (2013.1, Build901 2013/11/27)

>  <Rbt.Parameter_File>
/export/apps/rDock/src/rDock_2013.1_src//data/scripts/dock.prm

>  <Rbt.Receptor>
/home/ziqiaoxu/icml18-jtnn/VAEdesign/targets/RdRp-SARS-CoV-2/pocket_docking.prm

>  <SCORE>
-21.9559

>  <SCORE.INTER>
-17.1187

>  <SCORE.INTER.CONST>
1

>  <SCORE.INTER.POLAR>
-0.894427

>  <SCORE.INTER.REPUL>
0

>  <SCORE.INTER.ROT>
6

>  <SCORE.INTER.VDW>
-25.4776

>  <SCORE.INTER.norm>
-0.713279

>  <SCORE.INTRA>
-4.84205

>  <SCORE.INTRA.DIHEDRAL>
-6.17241

>  <SCORE.INTRA.DIHEDRAL.0>
15.336

>  <SCORE.INTRA.POLAR>
0

>  <SCORE.INTRA.POLAR.0>
0

>  <SCORE.INTRA.REPUL>
0

>  <SCORE.INTRA.REPUL.0>
0

>  <SCORE.INTRA.VDW>
-1.75584

>  <SCORE.INTRA.VDW.0>
4.51032

>  <SCORE.INTRA.norm>
-0.201752

>  <SCORE.RESTR>
0.00486785

>  <SCORE.RESTR.CAVITY>
0.00486785

>  <SCORE.RESTR.norm>
0.000202827

>  <SCORE.SYSTEM>
0

>  <SCORE.SYSTEM.CONST>
0

>  <SCORE.SYSTEM.DIHEDRAL>
0

>  <SCORE.SYSTEM.norm>
0

>  <SCORE.heavy>
24

>  <SCORE.norm>
-0.914828

$$$$
design_3
 OpenBabel05252019093D

 23 25  0  0  0  0  0  0  0  0999 V2000
   43.6782  -46.3983   -0.3565 C   0  0  0  0  0  0  0  0  0  0  0  0
   44.8092  -46.3580    0.5889 C   0  0  0  0  0  0  0  0  0  0  0  0
   45.9336  -46.7300    0.2026 O   0  0  0  0  0  0  0  0  0  0  0  0
   44.6472  -45.8979    1.9527 C   0  0  0  0  0  0  0  0  0  0  0  0
   43.4194  -45.4796    2.4216 C   0  0  0  0  0  0  0  0  0  0  0  0
   43.2601  -45.0397    3.7221 C   0  0  0  0  0  0  0  0  0  0  0  0
   44.3101  -44.9945    4.6168 C   0  0  0  0  0  0  0  0  0  0  0  0
   44.0861  -44.5122    6.0073 C   0  0  0  0  0  0  0  0  0  0  0  0
   43.9456  -45.6429    6.9795 C   0  0  0  0  0  0  0  0  0  0  0  0
   42.5581  -46.1040    7.1173 N   0  0  0  0  0  0  0  0  0  0  0  0
   41.8007  -45.8373    8.2763 C   0  0  0  0  0  0  0  0  0  0  0  0
   42.2930  -44.8751    9.1694 C   0  0  0  0  0  0  0  0  0  0  0  0
   41.5475  -44.5512   10.2767 C   0  0  0  0  0  0  0  0  0  0  0  0
   40.3334  -45.1328   10.5479 C   0  0  0  0  0  0  0  0  0  0  0  0
   39.8461  -46.0719    9.6830 C   0  0  0  0  0  0  0  0  0  0  0  0
   40.5868  -46.4229    8.5439 C   0  0  0  0  0  0  0  0  0  0  0  0
   39.9776  -47.4390    7.7185 C   0  0  0  0  0  0  0  0  0  0  0  0
   38.9542  -48.2364    7.9786 N   0  0  0  0  0  0  0  0  0  0  0  0
   38.7008  -49.0634    6.9181 C   0  0  0  0  0  0  0  0  0  0  0  0
   39.6025  -48.7545    5.9858 N   0  0  0  0  0  0  0  0  0  0  0  0
   40.3594  -47.7927    6.4582 N   0  0  0  0  0  0  0  0  0  0  0  0
   45.5417  -45.4114    4.1551 C   0  0  0  0  0  0  0  0  0  0  0  0
   45.7018  -45.8510    2.8560 C   0  0  0  0  0  0  0  0  0  0  0  0
  1  2  1  0  0  0  0
  2  3  2  0  0  0  0
  2  4  1  0  0  0  0
  4  5  2  0  0  0  0
  5  6  1  0  0  0  0
  6  7  2  0  0  0  0
  7  8  1  0  0  0  0
  7 22  1  0  0  0  0
  8  9  1  0  0  0  0
  9 10  1  0  0  0  0
 10 11  1  0  0  0  0
 11 12  2  0  0  0  0
 12 13  1  0  0  0  0
 13 14  2  0  0  0  0
 14 15  1  0  0  0  0
 15 16  2  0  0  0  0
 16 17  1  0  0  0  0
 16 11  1  0  0  0  0
 17 18  1  0  0  0  0
 18 19  2  0  0  0  0
 19 20  1  0  0  0  0
 20 21  1  0  0  0  0
 21 17  2  0  0  0  0
 22 23  2  0  0  0  0
 23  4  1  0  0  0  0
M  END
>  <CHROM.1>
0.11800394,99.77660695,-88.84658145,-107.66535278,13.84726690,166.73340984
42.44129412,-46.23058592,5.66587681,0.86563875,-0.62706537,-1.96243879

>  <Name>
design_3

>  <RI>
0

>  <Rbt.Current_Directory>
/home/ziqiaoxu/icml18-jtnn/VAEdesign

>  <Rbt.Executable>
rbdock ($Id: //depot/dev/client3/rdock/2013.1/src/exe/rbdock.cxx#4 $)

>  <Rbt.Library>
libRbt.so (2013.1, Build901 2013/11/27)

>  <Rbt.Parameter_File>
/export/apps/rDock/src/rDock_2013.1_src//data/scripts/dock.prm

>  <Rbt.Receptor>
/home/ziqiaoxu/icml18-jtnn/VAEdesign/targets/RdRp-SARS-CoV-2/pocket_docking.prm

>  <SCORE>
-18.4288

>  <SCORE.INTER>
-19.3259

>  <SCORE.INTER.CONST>
1

>  <SCORE.INTER.POLAR>
-1.54394

>  <SCORE.INTER.REPUL>
0

>  <SCORE.INTER.ROT>
6

>  <SCORE.INTER.VDW>
-25.4765

>  <SCORE.INTER.norm>
-0.840258

>  <SCORE.INTRA>
0.89715

>  <SCORE.INTRA.DIHEDRAL>
3.24648

>  <SCORE.INTRA.DIHEDRAL.0>
3.79607

>  <SCORE.INTRA.POLAR>
-0.121419

>  <SCORE.INTRA.POLAR.0>
-0.324777

>  <SCORE.INTRA.REPUL>
0

>  <SCORE.INTRA.REPUL.0>
0

>  <SCORE.INTRA.VDW>
-0.313262

>  <SCORE.INTRA.VDW.0>
0.787061

>  <SCORE.INTRA.norm>
0.0390065

>  <SCORE.RESTR>
0

>  <SCORE.RESTR.CAVITY>
0

>  <SCORE.RESTR.norm>
0

>  <SCORE.SYSTEM>
0

>  <SCORE.SYSTEM.CONST>
0

>  <SCORE.SYSTEM.DIHEDRAL>
0

>  <SCORE.SYSTEM.norm>
0

>  <SCORE.heavy>
23

>  <SCORE.norm>
-0.801252

$$$$
design_5
 OpenBabel05252019093D

 24 26  0  0  0  0  0  0  0  0999 V2000
   39.9200  -36.7127    5.9406 N   0  0  0  0  0  0  0  0  0  0  0  0
   39.9084  -37.7150    6.5426 C   0  0  0  0  0  0  0  0  0  0  0  0
   39.9008  -38.9440    7.2734 C   0  0  0  0  0  0  0  0  0  0  0  0
   40.3193  -38.9794    8.6039 C   0  0  0  0  0  0  0  0  0  0  0  0
   40.2920  -40.1926    9.2651 C   0  0  0  0  0  0  0  0  0  0  0  0
   39.8685  -41.3537    8.6551 C   0  0  0  0  0  0  0  0  0  0  0  0
   39.8587  -42.5892    9.3911 C   0  0  0  0  0  0  0  0  0  0  0  0
   40.1029  -42.5676   10.6512 O   0  0  0  0  0  0  0  0  0  0  0  0
   39.5924  -43.8520    8.8060 N   0  0  0  0  0  0  0  0  0  0  0  0
   39.5777  -45.0595    9.5395 C   0  0  0  0  0  0  0  0  0  0  0  0
   39.5712  -46.2622    8.6836 C   0  0  0  0  0  0  0  0  0  0  0  0
   38.4987  -47.0832    8.5660 C   0  0  0  0  0  0  0  0  0  0  0  0
   38.5374  -48.1803    7.7192 C   0  0  0  0  0  0  0  0  0  0  0  0
   39.6562  -48.4674    6.9769 C   0  0  0  0  0  0  0  0  0  0  0  0
   40.6903  -47.6254    7.1270 N   0  0  0  0  0  0  0  0  0  0  0  0
   40.7074  -46.5657    7.9199 C   0  0  0  0  0  0  0  0  0  0  0  0
   41.7926  -45.7430    8.0317 O   0  0  0  0  0  0  0  0  0  0  0  0
   42.9534  -45.8272    7.2644 C   0  0  0  0  0  0  0  0  0  0  0  0
   44.0143  -44.8166    7.7214 C   0  0  0  0  0  0  0  0  0  0  0  0
   45.0302  -45.0049    6.5872 C   0  0  0  0  0  0  0  0  0  0  0  0
   44.1655  -45.2077    5.3433 C   0  0  0  0  0  0  0  0  0  0  0  0
   42.7580  -45.4034    5.8323 C   0  0  0  0  0  0  0  0  0  0  0  0
   39.4698  -41.2726    7.3586 C   0  0  0  0  0  0  0  0  0  0  0  0
   39.4738  -40.0840    6.6398 C   0  0  0  0  0  0  0  0  0  0  0  0
  1  2  3  0  0  0  0
  2  3  1  0  0  0  0
  3  4  2  0  0  0  0
  4  5  1  0  0  0  0
  5  6  2  0  0  0  0
  6  7  1  0  0  0  0
  6 23  1  0  0  0  0
  7  8  2  0  0  0  0
  7  9  1  0  0  0  0
  9 10  1  0  0  0  0
 10 11  1  0  0  0  0
 11 12  2  0  0  0  0
 12 13  1  0  0  0  0
 13 14  2  0  0  0  0
 14 15  1  0  0  0  0
 15 16  2  0  0  0  0
 16 17  1  0  0  0  0
 16 11  1  0  0  0  0
 17 18  1  0  0  0  0
 18 19  1  0  0  0  0
 19 20  1  0  0  0  0
 20 21  1  0  0  0  0
 21 22  1  0  0  0  0
 22 18  1  0  0  0  0
 23 24  2  0  0  0  0
 24  3  1  0  0  0  0
M  END
>  <CHROM.1>
7.73266145,-167.42158393,-110.11988660,-174.03757535,-175.71022175,40.74050095
-43.61627538,7.77529153,-1.73306223,-0.50430856,3.06659798

>  <Name>
design_5

>  <RI>
0

>  <Rbt.Current_Directory>
/home/ziqiaoxu/icml18-jtnn/VAEdesign

>  <Rbt.Executable>
rbdock ($Id: //depot/dev/client3/rdock/2013.1/src/exe/rbdock.cxx#4 $)

>  <Rbt.Library>
libRbt.so (2013.1, Build901 2013/11/27)

>  <Rbt.Parameter_File>
/export/apps/rDock/src/rDock_2013.1_src//data/scripts/dock.prm

>  <Rbt.Receptor>
/home/ziqiaoxu/icml18-jtnn/VAEdesign/targets/RdRp-SARS-CoV-2/pocket_docking.prm

>  <SCORE>
-18.7767

>  <SCORE.INTER>
-15.0747

>  <SCORE.INTER.CONST>
1

>  <SCORE.INTER.POLAR>
0

>  <SCORE.INTER.REPUL>
0

>  <SCORE.INTER.ROT>
5

>  <SCORE.INTER.VDW>
-25.4747

>  <SCORE.INTER.norm>
-0.628112

>  <SCORE.INTRA>
-3.70201

>  <SCORE.INTRA.DIHEDRAL>
-6.58484

>  <SCORE.INTRA.DIHEDRAL.0>
9.04358

>  <SCORE.INTRA.POLAR>
0

>  <SCORE.INTRA.POLAR.0>
0

>  <SCORE.INTRA.REPUL>
0

>  <SCORE.INTRA.REPUL.0>
0

>  <SCORE.INTRA.VDW>
-0.409591

>  <SCORE.INTRA.VDW.0>
-1.46238

>  <SCORE.INTRA.norm>
-0.15425

>  <SCORE.RESTR>
0

>  <SCORE.RESTR.CAVITY>
0

>  <SCORE.RESTR.norm>
0

>  <SCORE.SYSTEM>
0

>  <SCORE.SYSTEM.CONST>
0

>  <SCORE.SYSTEM.DIHEDRAL>
0

>  <SCORE.SYSTEM.norm>
0

>  <SCORE.heavy>
24

>  <SCORE.norm>
-0.782362

$$$$
design_2
 OpenBabel05252019093D

 26 28  0  0  0  0  0  0  0  0999 V2000
   40.6721  -39.2092    1.2132 N   0  0  0  0  0  0  0  0  0  0  0  0
   42.0802  -38.8913    1.4093 C   0  0  0  0  0  0  0  0  0  0  0  0
   42.2785  -38.0609    2.2995 O   0  0  0  0  0  0  0  0  0  0  0  0
   43.0356  -39.5668    0.5651 C   0  0  0  0  0  0  0  0  0  0  0  0
   43.8160  -38.7651   -0.2687 C   0  0  0  0  0  0  0  0  0  0  0  0
   44.7878  -39.3014   -1.0655 C   0  0  0  0  0  0  0  0  0  0  0  0
   45.0051  -40.6564   -1.0497 C   0  0  0  0  0  0  0  0  0  0  0  0
   44.2424  -41.4571   -0.2338 C   0  0  0  0  0  0  0  0  0  0  0  0
   43.2407  -40.9260    0.5902 C   0  0  0  0  0  0  0  0  0  0  0  0
   42.4205  -41.7732    1.3625 N   0  0  0  0  0  0  0  0  0  0  0  0
   42.4749  -43.2023    1.4080 C   0  0  0  0  0  0  0  0  0  0  0  0
   43.2541  -43.9289    0.7821 O   0  0  0  0  0  0  0  0  0  0  0  0
   41.4959  -43.9367    2.3011 C   0  0  0  0  0  0  0  0  0  0  0  0
   42.1430  -44.2739    3.5986 C   0  0  0  0  0  0  0  0  0  0  0  0
   42.2340  -45.7348    3.8724 C   0  0  0  0  0  0  0  0  0  0  0  0
   41.4471  -46.1535    5.0619 C   0  0  0  0  0  0  0  0  0  0  0  0
   41.6546  -45.6060    6.2731 N   0  0  0  0  0  0  0  0  0  0  0  0
   40.9516  -45.9702    7.3706 C   0  0  0  0  0  0  0  0  0  0  0  0
   41.1701  -45.4052    8.6056 C   0  0  0  0  0  0  0  0  0  0  0  0
   40.4526  -45.7720    9.7425 C   0  0  0  0  0  0  0  0  0  0  0  0
   39.4806  -46.7427    9.6297 C   0  0  0  0  0  0  0  0  0  0  0  0
   39.2537  -47.3151    8.3970 C   0  0  0  0  0  0  0  0  0  0  0  0
   39.9759  -46.9405    7.2713 C   0  0  0  0  0  0  0  0  0  0  0  0
   39.7640  -47.5012    6.0293 C   0  0  0  0  0  0  0  0  0  0  0  0
   38.8713  -48.3906    5.9329 O   0  0  0  0  0  0  0  0  0  0  0  0
   40.4916  -47.1019    4.9713 N   0  0  0  0  0  0  0  0  0  0  0  0
  1  2  1  0  0  0  0
  2  3  2  0  0  0  0
  2  4  1  0  0  0  0
  4  5  2  0  0  0  0
  5  6  1  0  0  0  0
  6  7  2  0  0  0  0
  7  8  1  0  0  0  0
  8  9  2  0  0  0  0
  9 10  1  0  0  0  0
  9  4  1  0  0  0  0
 10 11  1  0  0  0  0
 11 12  2  0  0  0  0
 11 13  1  0  0  0  0
 13 14  1  0  0  0  0
 14 15  1  0  0  0  0
 15 16  1  0  0  0  0
 16 17  2  0  0  0  0
 17 18  1  0  0  0  0
 18 19  2  0  0  0  0
 19 20  1  0  0  0  0
 20 21  2  0  0  0  0
 21 22  1  0  0  0  0
 22 23  2  0  0  0  0
 23 24  1  0  0  0  0
 23 18  1  0  0  0  0
 24 25  2  0  0  0  0
 24 26  1  0  0  0  0
 26 16  1  0  0  0  0
M  END
>  <CHROM.1>
118.50791608,175.75367784,-97.42315752,-118.13675748,-116.22981993,-56.78783120
41.77350140,-43.54473587,3.65167215,0.67159036,1.17316700,0.05185773

>  <Name>
design_2

>  <RI>
0

>  <Rbt.Current_Directory>
/home/ziqiaoxu/icml18-jtnn/VAEdesign

>  <Rbt.Executable>
rbdock ($Id: //depot/dev/client3/rdock/2013.1/src/exe/rbdock.cxx#4 $)

>  <Rbt.Library>
libRbt.so (2013.1, Build901 2013/11/27)

>  <Rbt.Parameter_File>
/export/apps/rDock/src/rDock_2013.1_src//data/scripts/dock.prm

>  <Rbt.Receptor>
/home/ziqiaoxu/icml18-jtnn/VAEdesign/targets/RdRp-SARS-CoV-2/pocket_docking.prm

>  <SCORE>
-12.8438

>  <SCORE.INTER>
-20.8519

>  <SCORE.INTER.CONST>
1

>  <SCORE.INTER.POLAR>
-1.99351

>  <SCORE.INTER.REPUL>
0

>  <SCORE.INTER.ROT>
6

>  <SCORE.INTER.VDW>
-25.474

>  <SCORE.INTER.norm>
-0.801996

>  <SCORE.INTRA>
8.00809

>  <SCORE.INTRA.DIHEDRAL>
21.1737

>  <SCORE.INTRA.DIHEDRAL.0>
2.76957

>  <SCORE.INTRA.POLAR>
0

>  <SCORE.INTRA.POLAR.0>
0

>  <SCORE.INTRA.REPUL>
0

>  <SCORE.INTRA.REPUL.0>
0

>  <SCORE.INTRA.VDW>
-2.57876

>  <SCORE.INTRA.VDW.0>
0.993891

>  <SCORE.INTRA.norm>
0.308003

>  <SCORE.RESTR>
0

>  <SCORE.RESTR.CAVITY>
0

>  <SCORE.RESTR.norm>
0

>  <SCORE.SYSTEM>
0

>  <SCORE.SYSTEM.CONST>
0

>  <SCORE.SYSTEM.DIHEDRAL>
0

>  <SCORE.SYSTEM.norm>
0

>  <SCORE.heavy>
26

>  <SCORE.norm>
-0.493993

$$$$
design_9
 OpenBabel05252019093D

 24 25  0  0  0  0  0  0  0  0999 V2000
   39.7926  -36.4297    4.3432 N   0  0  0  0  0  0  0  0  0  0  0  0
   39.5437  -37.8147    4.4754 C   0  0  0  0  0  0  0  0  0  0  0  0
   39.1579  -38.4648    3.4810 O   0  0  0  0  0  0  0  0  0  0  0  0
   39.7271  -38.5015    5.7460 C   0  0  0  0  0  0  0  0  0  0  0  0
   40.4026  -37.9502    6.8011 C   0  0  0  0  0  0  0  0  0  0  0  0
   40.5902  -38.5917    8.0298 C   0  0  0  0  0  0  0  0  0  0  0  0
   40.0731  -39.8533    8.2118 C   0  0  0  0  0  0  0  0  0  0  0  0
   40.1559  -40.6175    9.3860 N   0  0  0  0  0  0  0  0  0  0  0  0
   39.6982  -41.9328    9.5578 C   0  0  0  0  0  0  0  0  0  0  0  0
   39.1599  -42.5756    8.6542 O   0  0  0  0  0  0  0  0  0  0  0  0
   39.8508  -42.6248   10.8825 C   0  0  0  0  0  0  0  0  0  0  0  0
   40.8039  -43.7895   10.7744 C   0  0  0  0  0  0  0  0  0  0  0  0
   40.2033  -44.9058   10.0778 N   0  0  0  0  0  0  0  0  0  0  0  0
   40.8084  -45.4053    8.9165 C   0  0  0  0  0  0  0  0  0  0  0  0
   41.8826  -44.8829    8.4712 O   0  0  0  0  0  0  0  0  0  0  0  0
   40.2437  -46.5168    8.1904 C   0  0  0  0  0  0  0  0  0  0  0  0
   39.1577  -47.2366    8.7029 C   0  0  0  0  0  0  0  0  0  0  0  0
   38.5828  -48.3018    8.0526 C   0  0  0  0  0  0  0  0  0  0  0  0
   39.1142  -48.6684    6.8336 C   0  0  0  0  0  0  0  0  0  0  0  0
   38.5503  -49.7252    6.1792 F   0  0  0  0  0  0  0  0  0  0  0  0
   40.1816  -47.9968    6.2815 C   0  0  0  0  0  0  0  0  0  0  0  0
   40.7417  -46.9144    6.9752 C   0  0  0  0  0  0  0  0  0  0  0  0
   39.3799  -40.4172    7.1256 C   0  0  0  0  0  0  0  0  0  0  0  0
   39.2082  -39.7692    5.9289 C   0  0  0  0  0  0  0  0  0  0  0  0
  1  2  1  0  0  0  0
  2  3  2  0  0  0  0
  2  4  1  0  0  0  0
  4  5  2  0  0  0  0
  5  6  1  0  0  0  0
  6  7  2  0  0  0  0
  7  8  1  0  0  0  0
  7 23  1  0  0  0  0
  8  9  1  0  0  0  0
  9 10  2  0  0  0  0
  9 11  1  0  0  0  0
 11 12  1  0  0  0  0
 12 13  1  0  0  0  0
 13 14  1  0  0  0  0
 14 15  2  0  0  0  0
 14 16  1  0  0  0  0
 16 17  2  0  0  0  0
 17 18  1  0  0  0  0
 18 19  2  0  0  0  0
 19 20  1  0  0  0  0
 19 21  1  0  0  0  0
 21 22  2  0  0  0  0
 22 16  1  0  0  0  0
 23 24  2  0  0  0  0
 24  4  1  0  0  0  0
M  END
>  <CHROM.1>
-14.11058079,-176.15634503,-114.04207010,-73.78359181,121.74110233,-7.48702147
39.86116636,-42.95249021,7.56493822,1.49889763,-1.35791883,-0.26842312

>  <Name>
design_9

>  <RI>
0

>  <Rbt.Current_Directory>
/home/ziqiaoxu/icml18-jtnn/VAEdesign

>  <Rbt.Executable>
rbdock ($Id: //depot/dev/client3/rdock/2013.1/src/exe/rbdock.cxx#4 $)

>  <Rbt.Library>
libRbt.so (2013.1, Build901 2013/11/27)

>  <Rbt.Parameter_File>
/export/apps/rDock/src/rDock_2013.1_src//data/scripts/dock.prm

>  <Rbt.Receptor>
/home/ziqiaoxu/icml18-jtnn/VAEdesign/targets/RdRp-SARS-CoV-2/pocket_docking.prm

>  <SCORE>
-22.368

>  <SCORE.INTER>
-21.9458

>  <SCORE.INTER.CONST>
1

>  <SCORE.INTER.POLAR>
-2.31557

>  <SCORE.INTER.REPUL>
0

>  <SCORE.INTER.ROT>
6

>  <SCORE.INTER.VDW>
-25.4729

>  <SCORE.INTER.norm>
-0.914409

>  <SCORE.INTRA>
-0.422172

>  <SCORE.INTRA.DIHEDRAL>
2.37398

>  <SCORE.INTRA.DIHEDRAL.0>
3.28496

>  <SCORE.INTRA.POLAR>
0

>  <SCORE.INTRA.POLAR.0>
0

>  <SCORE.INTRA.REPUL>
0

>  <SCORE.INTRA.REPUL.0>
0

>  <SCORE.INTRA.VDW>
-1.60916

>  <SCORE.INTRA.VDW.0>
1.21457

>  <SCORE.INTRA.norm>
-0.0175905

>  <SCORE.RESTR>
0

>  <SCORE.RESTR.CAVITY>
0

>  <SCORE.RESTR.norm>
0

>  <SCORE.SYSTEM>
0

>  <SCORE.SYSTEM.CONST>
0

>  <SCORE.SYSTEM.DIHEDRAL>
0

>  <SCORE.SYSTEM.norm>
0

>  <SCORE.heavy>
24

>  <SCORE.norm>
-0.931999

$$$$
design_11
 OpenBabel05252019093D

 24 27  0  0  0  0  0  0  0  0999 V2000
   40.1841  -38.5969    6.9378 C   0  0  0  0  0  0  0  0  0  0  0  0
   41.0505  -39.3792    7.9277 C   0  0  2  0  0  0  0  0  0  0  0  0
   41.4411  -40.5948    7.2912 N   0  0  0  0  0  0  0  0  0  0  0  0
   41.1541  -41.7758    7.6603 C   0  0  0  0  0  0  0  0  0  0  0  0
   40.3426  -42.0159    8.8515 C   0  0  0  0  0  0  0  0  0  0  0  0
   39.8836  -43.1555    9.4778 C   0  0  0  0  0  0  0  0  0  0  0  0
   40.1076  -44.5317    9.0806 C   0  0  0  0  0  0  0  0  0  0  0  0
   39.1362  -45.4355    8.8773 N   0  0  0  0  0  0  0  0  0  0  0  0
   39.6384  -46.6107    8.5221 C   0  0  0  0  0  0  0  0  0  0  0  0
   38.9702  -47.8871    8.1988 C   0  0  0  0  0  0  0  0  0  0  0  0
   39.3305  -48.3630    6.8517 C   0  0  0  0  0  0  0  0  0  0  0  0
   39.3647  -47.3754    5.7426 C   0  0  0  0  0  0  0  0  0  0  0  0
   38.2423  -46.4271    5.6948 C   0  0  0  0  0  0  0  0  0  0  0  0
   36.9415  -46.7351    5.5258 C   0  0  0  0  0  0  0  0  0  0  0  0
   35.9236  -45.7839    5.4774 C   0  0  0  0  0  0  0  0  0  0  0  0
   36.2408  -44.4513    5.6075 C   0  0  0  0  0  0  0  0  0  0  0  0
   37.5570  -44.1144    5.7808 C   0  0  0  0  0  0  0  0  0  0  0  0
   38.5487  -45.0670    5.8259 C   0  0  0  0  0  0  0  0  0  0  0  0
   40.9967  -46.3941    8.5131 N   0  0  0  0  0  0  0  0  0  0  0  0
   41.2095  -45.1564    8.8490 O   0  0  0  0  0  0  0  0  0  0  0  0
   39.1765  -42.7087   10.5468 N   0  0  0  0  0  0  0  0  0  0  0  0
   39.1994  -41.3896   10.5754 N   0  0  0  0  0  0  0  0  0  0  0  0
   39.9082  -40.8944    9.5484 C   0  0  0  0  0  0  0  0  0  0  0  0
   40.2477  -39.5771    9.1077 N   0  0  0  0  0  0  0  0  0  0  0  0
  2  1  1  6  0  0  0
  2  3  1  0  0  0  0
  3  4  2  0  0  0  0
  4  5  1  0  0  0  0
  5  6  1  0  0  0  0
  6  7  1  0  0  0  0
  6 21  2  0  0  0  0
  7  8  2  0  0  0  0
  8  9  1  0  0  0  0
  9 10  1  0  0  0  0
  9 19  2  0  0  0  0
 10 11  1  0  0  0  0
 11 12  1  0  0  0  0
 12 13  1  0  0  0  0
 13 14  2  0  0  0  0
 14 15  1  0  0  0  0
 15 16  2  0  0  0  0
 16 17  1  0  0  0  0
 17 18  2  0  0  0  0
 18 13  1  0  0  0  0
 19 20  1  0  0  0  0
 20  7  1  0  0  0  0
 21 22  1  0  0  0  0
 22 23  1  0  0  0  0
 23 24  1  0  0  0  0
 23  5  2  0  0  0  0
 24  2  1  0  0  0  0
M  END
>  <CHROM.1>
-125.85865541,122.93474904,-43.25554590,-43.87425535,-62.08317028,39.39328216
-43.89993705,7.79457598,1.08625031,-0.91458564,-0.08551909

>  <Name>
design_11

>  <RI>
0

>  <Rbt.Current_Directory>
/home/ziqiaoxu/icml18-jtnn/VAEdesign

>  <Rbt.Executable>
rbdock ($Id: //depot/dev/client3/rdock/2013.1/src/exe/rbdock.cxx#4 $)

>  <Rbt.Library>
libRbt.so (2013.1, Build901 2013/11/27)

>  <Rbt.Parameter_File>
/export/apps/rDock/src/rDock_2013.1_src//data/scripts/dock.prm

>  <Rbt.Receptor>
/home/ziqiaoxu/icml18-jtnn/VAEdesign/targets/RdRp-SARS-CoV-2/pocket_docking.prm

>  <SCORE>
-15.5583

>  <SCORE.INTER>
-19.9398

>  <SCORE.INTER.CONST>
1

>  <SCORE.INTER.POLAR>
-1.49172

>  <SCORE.INTER.REPUL>
0.040594

>  <SCORE.INTER.ROT>
5

>  <SCORE.INTER.VDW>
-25.4709

>  <SCORE.INTER.norm>
-0.830826

>  <SCORE.INTRA>
4.38151

>  <SCORE.INTRA.DIHEDRAL>
9.15092

>  <SCORE.INTRA.DIHEDRAL.0>
2.29322

>  <SCORE.INTRA.POLAR>
0

>  <SCORE.INTRA.POLAR.0>
0

>  <SCORE.INTRA.REPUL>
0

>  <SCORE.INTRA.REPUL.0>
0

>  <SCORE.INTRA.VDW>
-0.193952

>  <SCORE.INTRA.VDW.0>
-1.83755

>  <SCORE.INTRA.norm>
0.182563

>  <SCORE.RESTR>
0

>  <SCORE.RESTR.CAVITY>
0

>  <SCORE.RESTR.norm>
0

>  <SCORE.SYSTEM>
0

>  <SCORE.SYSTEM.CONST>
0

>  <SCORE.SYSTEM.DIHEDRAL>
0

>  <SCORE.SYSTEM.norm>
0

>  <SCORE.heavy>
24

>  <SCORE.norm>
-0.648263

$$$$
design_7
 OpenBabel05252019093D

 20 21  0  0  0  0  0  0  0  0999 V2000
   34.0775  -40.9744    6.7424 C   0  0  0  0  0  0  0  0  0  0  0  0
   35.5094  -41.4251    6.6188 C   0  0  0  0  0  0  0  0  0  0  0  0
   36.6215  -40.8168    6.9586 N   0  0  0  0  0  0  0  0  0  0  0  0
   37.7679  -41.3962    6.7613 C   0  0  0  0  0  0  0  0  0  0  0  0
   39.0559  -40.6879    7.1623 C   0  0  0  0  0  0  0  0  0  0  0  0
   39.0290  -40.4779    8.6303 C   0  0  0  0  0  0  0  0  0  0  0  0
   38.9925  -41.6790    9.4024 N   0  0  0  0  0  0  0  0  0  0  0  0
   39.9870  -42.6772    9.3463 C   0  0  0  0  0  0  0  0  0  0  0  0
   40.9712  -42.5259    8.5865 O   0  0  0  0  0  0  0  0  0  0  0  0
   39.9098  -43.8566   10.1273 N   0  0  0  0  0  0  0  0  0  0  0  0
   40.8749  -44.9112   10.1156 C   0  0  0  0  0  0  0  0  0  0  0  0
   40.4222  -45.9528    9.1733 C   0  0  0  0  0  0  0  0  0  0  0  0
   41.1338  -46.2819    8.0524 C   0  0  0  0  0  0  0  0  0  0  0  0
   40.6865  -47.2655    7.1752 C   0  0  0  0  0  0  0  0  0  0  0  0
   39.5098  -47.9256    7.4300 C   0  0  0  0  0  0  0  0  0  0  0  0
   38.9133  -49.2801    6.2111 Br  0  0  0  0  0  0  0  0  0  0  0  0
   38.7901  -47.5926    8.5652 C   0  0  0  0  0  0  0  0  0  0  0  0
   39.2428  -46.6150    9.4284 C   0  0  0  0  0  0  0  0  0  0  0  0
   37.7490  -42.6496    6.1917 C   0  0  0  0  0  0  0  0  0  0  0  0
   36.0741  -42.9020    5.9812 S   0  0  0  0  0  0  0  0  0  0  0  0
  1  2  1  0  0  0  0
  2  3  2  0  0  0  0
  3  4  1  0  0  0  0
  4  5  1  0  0  0  0
  4 19  2  0  0  0  0
  5  6  1  0  0  0  0
  6  7  1  0  0  0  0
  7  8  1  0  0  0  0
  8  9  2  0  0  0  0
  8 10  1  0  0  0  0
 10 11  1  0  0  0  0
 11 12  1  0  0  0  0
 12 13  2  0  0  0  0
 13 14  1  0  0  0  0
 14 15  2  0  0  0  0
 15 16  1  0  0  0  0
 15 17  1  0  0  0  0
 17 18  2  0  0  0  0
 18 12  1  0  0  0  0
 19 20  1  0  0  0  0
 20  2  1  0  0  0  0
M  END
>  <CHROM.1>
62.18708037,62.44081467,59.48505469,-95.14676089,117.10811082,38.64730937
-44.79370706,7.53028155,1.91436569,-0.65320681,0.27901032

>  <Name>
design_7

>  <RI>
0

>  <Rbt.Current_Directory>
/home/ziqiaoxu/icml18-jtnn/VAEdesign

>  <Rbt.Executable>
rbdock ($Id: //depot/dev/client3/rdock/2013.1/src/exe/rbdock.cxx#4 $)

>  <Rbt.Library>
libRbt.so (2013.1, Build901 2013/11/27)

>  <Rbt.Parameter_File>
/export/apps/rDock/src/rDock_2013.1_src//data/scripts/dock.prm

>  <Rbt.Receptor>
/home/ziqiaoxu/icml18-jtnn/VAEdesign/targets/RdRp-SARS-CoV-2/pocket_docking.prm

>  <SCORE>
-21.2667

>  <SCORE.INTER>
-18.4696

>  <SCORE.INTER.CONST>
1

>  <SCORE.INTER.POLAR>
-1.00003

>  <SCORE.INTER.REPUL>
0

>  <SCORE.INTER.ROT>
5

>  <SCORE.INTER.VDW>
-25.4695

>  <SCORE.INTER.norm>
-0.92348

>  <SCORE.INTRA>
-2.7971

>  <SCORE.INTRA.DIHEDRAL>
0.030522

>  <SCORE.INTRA.DIHEDRAL.0>
3.11771

>  <SCORE.INTRA.POLAR>
0

>  <SCORE.INTRA.POLAR.0>
0

>  <SCORE.INTRA.REPUL>
0

>  <SCORE.INTRA.REPUL.0>
0

>  <SCORE.INTRA.VDW>
-2.81236

>  <SCORE.INTRA.VDW.0>
1.06477

>  <SCORE.INTRA.norm>
-0.139855

>  <SCORE.RESTR>
0

>  <SCORE.RESTR.CAVITY>
0

>  <SCORE.RESTR.norm>
0

>  <SCORE.SYSTEM>
0

>  <SCORE.SYSTEM.CONST>
0

>  <SCORE.SYSTEM.DIHEDRAL>
0

>  <SCORE.SYSTEM.norm>
0

>  <SCORE.heavy>
20

>  <SCORE.norm>
-1.06334

$$$$
design_17
 OpenBabel05252019093D

 20 21  0  0  0  0  0  0  0  0999 V2000
   41.0922  -44.6482   10.8506 C   0  0  0  0  0  0  0  0  0  0  0  0
   40.6805  -45.5141    9.7130 C   0  0  0  0  0  0  0  0  0  0  0  0
   39.5020  -46.2360    9.7171 C   0  0  0  0  0  0  0  0  0  0  0  0
   39.1147  -47.0369    8.6722 C   0  0  0  0  0  0  0  0  0  0  0  0
   39.9206  -47.1432    7.5562 C   0  0  0  0  0  0  0  0  0  0  0  0
   39.4574  -48.1617    6.1942 S   0  0  0  0  0  0  0  0  0  0  0  0
   40.4649  -47.9711    5.0839 O   0  0  0  0  0  0  0  0  0  0  0  0
   39.4159  -49.5976    6.6454 O   0  0  0  0  0  0  0  0  0  0  0  0
   37.9556  -47.6599    5.6189 O   0  0  0  0  0  0  0  0  0  0  0  0
   37.4626  -46.3801    5.7148 C   0  0  0  0  0  0  0  0  0  0  0  0
   38.3707  -45.3697    6.0249 C   0  0  0  0  0  0  0  0  0  0  0  0
   37.9478  -44.0689    6.1364 C   0  0  0  0  0  0  0  0  0  0  0  0
   36.6167  -43.7214    5.9460 C   0  0  0  0  0  0  0  0  0  0  0  0
   36.1806  -42.3372    6.0672 C   0  0  0  0  0  0  0  0  0  0  0  0
   34.7878  -42.0500    6.0508 N   0  0  0  0  0  0  0  0  0  0  0  0
   37.0489  -41.4407    6.1823 O   0  0  0  0  0  0  0  0  0  0  0  0
   35.7559  -44.7517    5.6415 C   0  0  0  0  0  0  0  0  0  0  0  0
   36.1437  -46.0512    5.5239 C   0  0  0  0  0  0  0  0  0  0  0  0
   41.1229  -46.4291    7.5108 C   0  0  0  0  0  0  0  0  0  0  0  0
   41.4718  -45.6372    8.5825 C   0  0  0  0  0  0  0  0  0  0  0  0
  1  2  1  0  0  0  0
  2  3  2  0  0  0  0
  3  4  1  0  0  0  0
  4  5  2  0  0  0  0
  5  6  1  0  0  0  0
  5 19  1  0  0  0  0
  6  7  2  0  0  0  0
  6  8  2  0  0  0  0
  6  9  1  0  0  0  0
  9 10  1  0  0  0  0
 10 11  2  0  0  0  0
 11 12  1  0  0  0  0
 12 13  2  0  0  0  0
 13 14  1  0  0  0  0
 13 17  1  0  0  0  0
 14 15  1  0  0  0  0
 14 16  2  0  0  0  0
 17 18  2  0  0  0  0
 18 10  1  0  0  0  0
 19 20  2  0  0  0  0
 20  2  1  0  0  0  0
M  END
>  <CHROM.1>
174.72478052,27.94273392,15.40322097,-171.27142902,38.57631661,-45.78643365
6.89307141,-0.49276370,-0.73528402,0.54158801

>  <Name>
design_17

>  <RI>
0

>  <Rbt.Current_Directory>
/home/ziqiaoxu/icml18-jtnn/VAEdesign

>  <Rbt.Executable>
rbdock ($Id: //depot/dev/client3/rdock/2013.1/src/exe/rbdock.cxx#4 $)

>  <Rbt.Library>
libRbt.so (2013.1, Build901 2013/11/27)

>  <Rbt.Parameter_File>
/export/apps/rDock/src/rDock_2013.1_src//data/scripts/dock.prm

>  <Rbt.Receptor>
/home/ziqiaoxu/icml18-jtnn/VAEdesign/targets/RdRp-SARS-CoV-2/pocket_docking.prm

>  <SCORE>
-20.8851

>  <SCORE.INTER>
-19.0849

>  <SCORE.INTER.CONST>
1

>  <SCORE.INTER.POLAR>
-0.887088

>  <SCORE.INTER.REPUL>
0

>  <SCORE.INTER.ROT>
4

>  <SCORE.INTER.VDW>
-25.4688

>  <SCORE.INTER.norm>
-0.954247

>  <SCORE.INTRA>
-1.80015

>  <SCORE.INTRA.DIHEDRAL>
-4.21556

>  <SCORE.INTRA.DIHEDRAL.0>
6.68729

>  <SCORE.INTRA.POLAR>
0

>  <SCORE.INTRA.POLAR.0>
0

>  <SCORE.INTRA.REPUL>
0

>  <SCORE.INTRA.REPUL.0>
0

>  <SCORE.INTRA.VDW>
0.307629

>  <SCORE.INTRA.VDW.0>
-1.83678

>  <SCORE.INTRA.norm>
-0.0900075

>  <SCORE.RESTR>
0

>  <SCORE.RESTR.CAVITY>
0

>  <SCORE.RESTR.norm>
0

>  <SCORE.SYSTEM>
0

>  <SCORE.SYSTEM.CONST>
0

>  <SCORE.SYSTEM.DIHEDRAL>
0

>  <SCORE.SYSTEM.norm>
0

>  <SCORE.heavy>
20

>  <SCORE.norm>
-1.04425

$$$$
design_0
 OpenBabel05252019093D

 23 25  0  0  0  0  0  0  0  0999 V2000
   40.2899  -37.9154    1.7482 C   0  0  0  0  0  0  0  0  0  0  0  0
   39.5047  -37.6878    2.8906 O   0  0  0  0  0  0  0  0  0  0  0  0
   39.9424  -37.9564    4.1815 C   0  0  0  0  0  0  0  0  0  0  0  0
   39.5618  -37.1807    5.2529 C   0  0  0  0  0  0  0  0  0  0  0  0
   39.9814  -37.4261    6.5417 C   0  0  0  0  0  0  0  0  0  0  0  0
   40.8351  -38.5092    6.7976 C   0  0  0  0  0  0  0  0  0  0  0  0
   41.2579  -38.7519    8.1777 C   0  0  0  0  0  0  0  0  0  0  0  0
   40.3252  -39.5187    8.9725 N   0  0  0  0  0  0  0  0  0  0  0  0
   40.2328  -40.9217    8.8382 C   0  0  0  0  0  0  0  0  0  0  0  0
   40.9800  -41.4886    8.0141 O   0  0  0  0  0  0  0  0  0  0  0  0
   39.2876  -41.6819    9.6454 C   0  0  0  0  0  0  0  0  0  0  0  0
   39.5853  -43.1655    9.6083 C   0  0  0  0  0  0  0  0  0  0  0  0
   40.3737  -43.7643   10.5536 C   0  0  0  0  0  0  0  0  0  0  0  0
   40.3562  -45.3983   10.0125 S   0  0  0  0  0  0  0  0  0  0  0  0
   39.3649  -45.2023    8.6480 C   0  0  0  0  0  0  0  0  0  0  0  0
   38.9678  -46.2893    7.7324 C   0  0  0  0  0  0  0  0  0  0  0  0
   38.1959  -46.2083    6.6074 C   0  0  0  0  0  0  0  0  0  0  0  0
   37.9685  -47.3465    5.9283 C   0  0  0  0  0  0  0  0  0  0  0  0
   38.5316  -48.4926    6.4241 C   0  0  0  0  0  0  0  0  0  0  0  0
   39.3548  -47.9489    7.8123 S   0  0  0  0  0  0  0  0  0  0  0  0
   39.0942  -43.9226    8.6627 N   0  0  0  0  0  0  0  0  0  0  0  0
   41.1939  -39.2604    5.7072 C   0  0  0  0  0  0  0  0  0  0  0  0
   40.7608  -38.9898    4.4477 N   0  0  0  0  0  0  0  0  0  0  0  0
  1  2  1  0  0  0  0
  2  3  1  0  0  0  0
  3  4  2  0  0  0  0
  4  5  1  0  0  0  0
  5  6  2  0  0  0  0
  6  7  1  0  0  0  0
  6 22  1  0  0  0  0
  7  8  1  0  0  0  0
  8  9  1  0  0  0  0
  9 10  2  0  0  0  0
  9 11  1  0  0  0  0
 11 12  1  0  0  0  0
 12 13  2  0  0  0  0
 13 14  1  0  0  0  0
 14 15  1  0  0  0  0
 15 16  1  0  0  0  0
 15 21  2  0  0  0  0
 16 17  2  0  0  0  0
 17 18  1  0  0  0  0
 18 19  2  0  0  0  0
 19 20  1  0  0  0  0
 20 16  1  0  0  0  0
 21 12  1  0  0  0  0
 22 23  2  0  0  0  0
 23  3  1  0  0  0  0
M  END
>  <CHROM.1>
146.10071229,84.05679958,78.05015447,-165.60182012,93.10186225,-178.80325954
39.84159360,-42.38356479,7.24743909,1.11505125,-1.31215035,-0.80119197

>  <Name>
design_0

>  <RI>
0

>  <Rbt.Current_Directory>
/home/ziqiaoxu/icml18-jtnn/VAEdesign

>  <Rbt.Executable>
rbdock ($Id: //depot/dev/client3/rdock/2013.1/src/exe/rbdock.cxx#4 $)

>  <Rbt.Library>
libRbt.so (2013.1, Build901 2013/11/27)

>  <Rbt.Parameter_File>
/export/apps/rDock/src/rDock_2013.1_src//data/scripts/dock.prm

>  <Rbt.Receptor>
/home/ziqiaoxu/icml18-jtnn/VAEdesign/targets/RdRp-SARS-CoV-2/pocket_docking.prm

>  <SCORE>
-18.873

>  <SCORE.INTER>
-18.3608

>  <SCORE.INTER.CONST>
1

>  <SCORE.INTER.POLAR>
-1.26252

>  <SCORE.INTER.REPUL>
0

>  <SCORE.INTER.ROT>
6

>  <SCORE.INTER.VDW>
-25.4682

>  <SCORE.INTER.norm>
-0.798294

>  <SCORE.INTRA>
-0.53944

>  <SCORE.INTRA.DIHEDRAL>
1.10571

>  <SCORE.INTRA.DIHEDRAL.0>
4.79153

>  <SCORE.INTRA.POLAR>
0

>  <SCORE.INTRA.POLAR.0>
0

>  <SCORE.INTRA.REPUL>
0

>  <SCORE.INTRA.REPUL.0>
0

>  <SCORE.INTRA.VDW>
-1.0923

>  <SCORE.INTRA.VDW.0>
-1.22163

>  <SCORE.INTRA.norm>
-0.0234539

>  <SCORE.RESTR>
0.0272431

>  <SCORE.RESTR.CAVITY>
0.0272431

>  <SCORE.RESTR.norm>
0.00118448

>  <SCORE.SYSTEM>
0

>  <SCORE.SYSTEM.CONST>
0

>  <SCORE.SYSTEM.DIHEDRAL>
0

>  <SCORE.SYSTEM.norm>
0

>  <SCORE.heavy>
23

>  <SCORE.norm>
-0.820563

$$$$
design_0
 OpenBabel05252019093D

 24 25  0  0  0  0  0  0  0  0999 V2000
   44.2718  -45.4702   -0.2235 C   0  0  0  0  0  0  0  0  0  0  0  0
   45.3016  -45.9913    0.7061 C   0  0  0  0  0  0  0  0  0  0  0  0
   46.3171  -46.7535    0.1729 C   0  0  0  0  0  0  0  0  0  0  0  0
   47.2962  -47.2598    0.9944 C   0  0  0  0  0  0  0  0  0  0  0  0
   48.4163  -48.0894    0.4698 C   0  0  0  0  0  0  0  0  0  0  0  0
   47.2092  -46.9689    2.3585 C   0  0  0  0  0  0  0  0  0  0  0  0
   46.2185  -46.2178    2.9224 C   0  0  0  0  0  0  0  0  0  0  0  0
   46.0856  -45.8903    4.2840 N   0  0  0  0  0  0  0  0  0  0  0  0
   45.6096  -44.7081    4.8643 C   0  0  0  0  0  0  0  0  0  0  0  0
   45.2229  -43.7487    4.1791 O   0  0  0  0  0  0  0  0  0  0  0  0
   45.5365  -44.5255    6.3460 C   0  0  0  0  0  0  0  0  0  0  0  0
   44.6410  -45.4843    6.9613 N   0  0  0  0  0  0  0  0  0  0  0  0
   43.0921  -45.2807    6.2287 S   0  0  0  0  0  0  0  0  0  0  0  0
   42.8923  -43.8104    5.9996 O   0  0  0  0  0  0  0  0  0  0  0  0
   43.1384  -45.9359    4.8692 O   0  0  0  0  0  0  0  0  0  0  0  0
   41.8211  -45.9667    7.2059 C   0  0  0  0  0  0  0  0  0  0  0  0
   40.9949  -46.9815    6.7722 C   0  0  0  0  0  0  0  0  0  0  0  0
   39.9928  -47.5140    7.5579 C   0  0  0  0  0  0  0  0  0  0  0  0
   39.1271  -48.6100    7.0419 C   0  0  0  0  0  0  0  0  0  0  0  0
   39.8155  -47.0035    8.8331 C   0  0  0  0  0  0  0  0  0  0  0  0
   40.6231  -45.9854    9.3060 C   0  0  0  0  0  0  0  0  0  0  0  0
   40.3846  -45.4817   10.6776 C   0  0  0  0  0  0  0  0  0  0  0  0
   41.6226  -45.4766    8.4804 C   0  0  0  0  0  0  0  0  0  0  0  0
   45.2397  -45.7205    2.0497 C   0  0  0  0  0  0  0  0  0  0  0  0
  1  2  1  0  0  0  0
  2  3  2  0  0  0  0
  3  4  1  0  0  0  0
  4  5  1  0  0  0  0
  4  6  2  0  0  0  0
  6  7  1  0  0  0  0
  7  8  1  0  0  0  0
  7 24  2  0  0  0  0
  8  9  1  0  0  0  0
  9 10  2  0  0  0  0
  9 11  1  0  0  0  0
 11 12  1  0  0  0  0
 12 13  1  0  0  0  0
 13 14  2  0  0  0  0
 13 15  2  0  0  0  0
 13 16  1  0  0  0  0
 16 17  2  0  0  0  0
 17 18  1  0  0  0  0
 18 19  1  0  0  0  0
 18 20  2  0  0  0  0
 20 21  1  0  0  0  0
 21 22  1  0  0  0  0
 21 23  2  0  0  0  0
 23 16  1  0  0  0  0
 24  2  1  0  0  0  0
M  END
>  <CHROM.1>
144.36709949,-62.05581481,-57.82581953,-37.86412642,-119.42908344,43.75420202
-45.96815262,5.03785027,0.73733140,-0.54628984,-2.11044896

>  <Name>
design_0

>  <RI>
0

>  <Rbt.Current_Directory>
/home/ziqiaoxu/icml18-jtnn/VAEdesign

>  <Rbt.Executable>
rbdock ($Id: //depot/dev/client3/rdock/2013.1/src/exe/rbdock.cxx#4 $)

>  <Rbt.Library>
libRbt.so (2013.1, Build901 2013/11/27)

>  <Rbt.Parameter_File>
/export/apps/rDock/src/rDock_2013.1_src//data/scripts/dock.prm

>  <Rbt.Receptor>
/home/ziqiaoxu/icml18-jtnn/VAEdesign/targets/RdRp-SARS-CoV-2/pocket_docking.prm

>  <SCORE>
-18.9447

>  <SCORE.INTER>
-20.7802

>  <SCORE.INTER.CONST>
1

>  <SCORE.INTER.POLAR>
-1.6811

>  <SCORE.INTER.REPUL>
0

>  <SCORE.INTER.ROT>
5

>  <SCORE.INTER.VDW>
-25.4645

>  <SCORE.INTER.norm>
-0.865842

>  <SCORE.INTRA>
1.83555

>  <SCORE.INTRA.DIHEDRAL>
4.70603

>  <SCORE.INTRA.DIHEDRAL.0>
2.63064

>  <SCORE.INTRA.POLAR>
0

>  <SCORE.INTRA.POLAR.0>
0

>  <SCORE.INTRA.REPUL>
0

>  <SCORE.INTRA.REPUL.0>
0

>  <SCORE.INTRA.VDW>
-0.517467

>  <SCORE.INTRA.VDW.0>
-1.31916

>  <SCORE.INTRA.norm>
0.0764812

>  <SCORE.RESTR>
0

>  <SCORE.RESTR.CAVITY>
0

>  <SCORE.RESTR.norm>
0

>  <SCORE.SYSTEM>
0

>  <SCORE.SYSTEM.CONST>
0

>  <SCORE.SYSTEM.DIHEDRAL>
0

>  <SCORE.SYSTEM.norm>
0

>  <SCORE.heavy>
24

>  <SCORE.norm>
-0.789361

$$$$
design_5
 OpenBabel05252019093D

 24 26  0  0  0  0  0  0  0  0999 V2000
   47.0166  -43.2074    7.4532 C   0  0  0  0  0  0  0  0  0  0  0  0
   45.7101  -43.8078    7.8262 C   0  0  0  0  0  0  0  0  0  0  0  0
   45.0215  -44.6813    7.0060 C   0  0  0  0  0  0  0  0  0  0  0  0
   43.8149  -45.2227    7.3742 C   0  0  0  0  0  0  0  0  0  0  0  0
   43.2505  -44.8978    8.6020 C   0  0  0  0  0  0  0  0  0  0  0  0
   41.9776  -45.4600    9.0065 C   0  0  0  0  0  0  0  0  0  0  0  0
   41.3750  -45.2375   10.1791 N   0  0  0  0  0  0  0  0  0  0  0  0
   40.2259  -45.9157   10.2018 N   0  0  0  0  0  0  0  0  0  0  0  0
   40.0821  -46.5788    9.0434 C   0  0  0  0  0  0  0  0  0  0  0  0
   38.9455  -47.4326    8.6980 C   0  0  0  0  0  0  0  0  0  0  0  0
   38.0625  -46.8978    7.7123 N   0  0  0  0  0  0  0  0  0  0  0  0
   38.1715  -47.3449    6.3745 C   0  0  0  0  0  0  0  0  0  0  0  0
   39.0343  -48.1983    6.0714 O   0  0  0  0  0  0  0  0  0  0  0  0
   37.2338  -46.7700    5.3538 C   0  0  0  0  0  0  0  0  0  0  0  0
   37.0400  -45.3336    5.5264 C   0  0  0  0  0  0  0  0  0  0  0  0
   35.7852  -44.7676    5.4934 C   0  0  0  0  0  0  0  0  0  0  0  0
   35.6121  -43.3897    5.6600 C   0  0  0  0  0  0  0  0  0  0  0  0
   36.7067  -42.5980    5.8581 C   0  0  0  0  0  0  0  0  0  0  0  0
   36.5391  -41.2701    6.0185 F   0  0  0  0  0  0  0  0  0  0  0  0
   37.9819  -43.1405    5.8959 C   0  0  0  0  0  0  0  0  0  0  0  0
   38.1257  -44.5100    5.7279 C   0  0  0  0  0  0  0  0  0  0  0  0
   41.1828  -46.2812    8.3148 N   0  0  0  0  0  0  0  0  0  0  0  0
   43.9592  -44.0231    9.4017 C   0  0  0  0  0  0  0  0  0  0  0  0
   45.1657  -43.4732    9.0490 C   0  0  0  0  0  0  0  0  0  0  0  0
  1  2  1  0  0  0  0
  2  3  2  0  0  0  0
  3  4  1  0  0  0  0
  4  5  2  0  0  0  0
  5  6  1  0  0  0  0
  5 23  1  0  0  0  0
  6  7  2  0  0  0  0
  7  8  1  0  0  0  0
  8  9  1  0  0  0  0
  9 10  1  0  0  0  0
  9 22  2  0  0  0  0
 10 11  1  0  0  0  0
 11 12  1  0  0  0  0
 12 13  2  0  0  0  0
 12 14  1  0  0  0  0
 14 15  1  0  0  0  0
 15 16  2  0  0  0  0
 16 17  1  0  0  0  0
 17 18  2  0  0  0  0
 18 19  1  0  0  0  0
 18 20  1  0  0  0  0
 20 21  2  0  0  0  0
 21 15  1  0  0  0  0
 22  6  1  0  0  0  0
 23 24  2  0  0  0  0
 24  2  1  0  0  0  0
M  END
>  <CHROM.1>
178.02422940,108.31450891,100.26577654,41.19980510,-133.69717513,40.26487274
-44.99659295,7.40265766,-0.07038345,-0.29062457,-0.36261304

>  <Name>
design_5

>  <RI>
0

>  <Rbt.Current_Directory>
/home/ziqiaoxu/icml18-jtnn/VAEdesign

>  <Rbt.Executable>
rbdock ($Id: //depot/dev/client3/rdock/2013.1/src/exe/rbdock.cxx#4 $)

>  <Rbt.Library>
libRbt.so (2013.1, Build901 2013/11/27)

>  <Rbt.Parameter_File>
/export/apps/rDock/src/rDock_2013.1_src//data/scripts/dock.prm

>  <Rbt.Receptor>
/home/ziqiaoxu/icml18-jtnn/VAEdesign/targets/RdRp-SARS-CoV-2/pocket_docking.prm

>  <SCORE>
-18.4228

>  <SCORE.INTER>
-17.8261

>  <SCORE.INTER.CONST>
1

>  <SCORE.INTER.POLAR>
-1.00742

>  <SCORE.INTER.REPUL>
0.1323

>  <SCORE.INTER.ROT>
5

>  <SCORE.INTER.VDW>
-25.4624

>  <SCORE.INTER.norm>
-0.742754

>  <SCORE.INTRA>
-0.596712

>  <SCORE.INTRA.DIHEDRAL>
0.0150749

>  <SCORE.INTRA.DIHEDRAL.0>
4.59201

>  <SCORE.INTRA.POLAR>
0

>  <SCORE.INTRA.POLAR.0>
0

>  <SCORE.INTRA.REPUL>
0

>  <SCORE.INTRA.REPUL.0>
0

>  <SCORE.INTRA.VDW>
-0.604249

>  <SCORE.INTRA.VDW.0>
-1.37307

>  <SCORE.INTRA.norm>
-0.024863

>  <SCORE.RESTR>
0

>  <SCORE.RESTR.CAVITY>
0

>  <SCORE.RESTR.norm>
0

>  <SCORE.SYSTEM>
0

>  <SCORE.SYSTEM.CONST>
0

>  <SCORE.SYSTEM.DIHEDRAL>
0

>  <SCORE.SYSTEM.norm>
0

>  <SCORE.heavy>
24

>  <SCORE.norm>
-0.767617

$$$$
design_18
 OpenBabel05252019093D

 24 27  0  0  0  0  0  0  0  0999 V2000
   39.8704  -42.6667   10.6884 C   0  0  0  0  0  0  0  0  0  0  0  0
   39.8392  -44.1086   10.2868 C   0  0  0  0  0  0  0  0  0  0  0  0
   40.3563  -45.1558   10.9843 N   0  0  0  0  0  0  0  0  0  0  0  0
   40.1286  -46.2680   10.3041 N   0  0  0  0  0  0  0  0  0  0  0  0
   39.4709  -45.9852    9.1689 C   0  0  0  0  0  0  0  0  0  0  0  0
   39.0175  -46.8994    8.1258 C   0  0  0  0  0  0  0  0  0  0  0  0
   39.2834  -48.2512    8.1893 C   0  0  0  0  0  0  0  0  0  0  0  0
   38.8605  -49.1265    7.2085 C   0  0  0  0  0  0  0  0  0  0  0  0
   38.1408  -48.6112    6.1227 C   0  0  0  0  0  0  0  0  0  0  0  0
   37.8610  -47.2708    6.0317 C   0  0  0  0  0  0  0  0  0  0  0  0
   37.0992  -46.7493    4.8731 C   0  0  0  0  0  0  0  0  0  0  0  0
   36.5208  -45.4787    5.2361 N   0  0  0  0  0  0  0  0  0  0  0  0
   37.2946  -44.3219    5.4073 C   0  0  0  0  0  0  0  0  0  0  0  0
   38.5404  -44.3878    5.2396 O   0  0  0  0  0  0  0  0  0  0  0  0
   36.6796  -43.0625    5.7723 C   0  0  0  0  0  0  0  0  0  0  0  0
   37.3535  -41.9194    6.1713 C   0  0  0  0  0  0  0  0  0  0  0  0
   36.3804  -40.9805    6.4144 C   0  0  0  0  0  0  0  0  0  0  0  0
   36.1573  -39.7394    6.7947 O   0  0  0  0  0  0  0  0  0  0  0  0
   34.8944  -39.4623    6.8121 C   0  0  0  0  0  0  0  0  0  0  0  0
   34.2172  -40.5987    6.4149 C   0  0  0  0  0  0  0  0  0  0  0  0
   35.1445  -41.5839    6.1548 C   0  0  0  0  0  0  0  0  0  0  0  0
   35.3592  -42.8327    5.7717 N   0  0  0  0  0  0  0  0  0  0  0  0
   38.3079  -46.4178    7.0472 C   0  0  0  0  0  0  0  0  0  0  0  0
   39.3021  -44.6455    9.1777 N   0  0  0  0  0  0  0  0  0  0  0  0
  1  2  1  0  0  0  0
  2  3  2  0  0  0  0
  3  4  1  0  0  0  0
  4  5  1  0  0  0  0
  5  6  1  0  0  0  0
  5 24  2  0  0  0  0
  6  7  2  0  0  0  0
  7  8  1  0  0  0  0
  8  9  2  0  0  0  0
  9 10  1  0  0  0  0
 10 11  1  0  0  0  0
 10 23  2  0  0  0  0
 11 12  1  0  0  0  0
 12 13  1  0  0  0  0
 13 14  2  0  0  0  0
 13 15  1  0  0  0  0
 15 16  2  0  0  0  0
 16 17  1  0  0  0  0
 17 18  1  0  0  0  0
 18 19  1  0  0  0  0
 19 20  2  0  0  0  0
 20 21  1  0  0  0  0
 21 22  1  0  0  0  0
 21 17  2  0  0  0  0
 22 15  1  0  0  0  0
 23  6  1  0  0  0  0
 24  2  1  0  0  0  0
M  END
>  <CHROM.1>
-2.44248632,158.93403832,71.02472888,169.15660230,37.75845934,-44.41040861
7.27448092,-0.64150078,-0.90592636,0.47987068

>  <Name>
design_18

>  <RI>
0

>  <Rbt.Current_Directory>
/home/ziqiaoxu/icml18-jtnn/VAEdesign

>  <Rbt.Executable>
rbdock ($Id: //depot/dev/client3/rdock/2013.1/src/exe/rbdock.cxx#4 $)

>  <Rbt.Library>
libRbt.so (2013.1, Build901 2013/11/27)

>  <Rbt.Parameter_File>
/export/apps/rDock/src/rDock_2013.1_src//data/scripts/dock.prm

>  <Rbt.Receptor>
/home/ziqiaoxu/icml18-jtnn/VAEdesign/targets/RdRp-SARS-CoV-2/pocket_docking.prm

>  <SCORE>
-19.7254

>  <SCORE.INTER>
-20.4591

>  <SCORE.INTER.CONST>
1

>  <SCORE.INTER.POLAR>
-1.29329

>  <SCORE.INTER.REPUL>
0

>  <SCORE.INTER.ROT>
4

>  <SCORE.INTER.VDW>
-25.4619

>  <SCORE.INTER.norm>
-0.852461

>  <SCORE.INTRA>
0.733034

>  <SCORE.INTRA.DIHEDRAL>
0.427144

>  <SCORE.INTRA.DIHEDRAL.0>
1.92055

>  <SCORE.INTRA.POLAR>
0

>  <SCORE.INTRA.POLAR.0>
0

>  <SCORE.INTRA.REPUL>
0

>  <SCORE.INTRA.REPUL.0>
0

>  <SCORE.INTRA.VDW>
0.519462

>  <SCORE.INTRA.VDW.0>
-1.05711

>  <SCORE.INTRA.norm>
0.0305431

>  <SCORE.RESTR>
0.000633362

>  <SCORE.RESTR.CAVITY>
0.000633362

>  <SCORE.RESTR.norm>
2.63901e-05

>  <SCORE.SYSTEM>
0

>  <SCORE.SYSTEM.CONST>
0

>  <SCORE.SYSTEM.DIHEDRAL>
0

>  <SCORE.SYSTEM.norm>
0

>  <SCORE.heavy>
24

>  <SCORE.norm>
-0.821892

$$$$
design_5
 OpenBabel05252019093D

 23 25  0  0  0  0  0  0  0  0999 V2000
   45.6312  -45.3447    5.0090 C   0  0  0  0  0  0  0  0  0  0  0  0
   45.5545  -44.7110    6.3653 C   0  0  0  0  0  0  0  0  0  0  0  0
   46.6057  -43.9726    6.8696 C   0  0  0  0  0  0  0  0  0  0  0  0
   46.5499  -43.3814    8.1211 C   0  0  0  0  0  0  0  0  0  0  0  0
   45.4230  -43.5265    8.8913 C   0  0  0  0  0  0  0  0  0  0  0  0
   44.3544  -44.2601    8.4131 C   0  0  0  0  0  0  0  0  0  0  0  0
   43.1554  -44.4166    9.2286 C   0  0  0  0  0  0  0  0  0  0  0  0
   42.0155  -44.9644    8.8062 N   0  0  0  0  0  0  0  0  0  0  0  0
   41.1569  -44.9322    9.8234 C   0  0  0  0  0  0  0  0  0  0  0  0
   39.7683  -45.4676    9.7279 C   0  0  0  0  0  0  0  0  0  0  0  0
   39.6963  -46.8532    9.4051 N   0  0  0  0  0  0  0  0  0  0  0  0
   39.0751  -47.2815    8.2086 C   0  0  0  0  0  0  0  0  0  0  0  0
   39.1617  -48.6211    7.8197 C   0  0  0  0  0  0  0  0  0  0  0  0
   38.5670  -49.0383    6.6531 C   0  0  0  0  0  0  0  0  0  0  0  0
   37.8761  -48.1566    5.8436 C   0  0  0  0  0  0  0  0  0  0  0  0
   37.7695  -46.8183    6.1981 C   0  0  0  0  0  0  0  0  0  0  0  0
   37.0452  -45.8832    5.3525 C   0  0  0  0  0  0  0  0  0  0  0  0
   35.6673  -45.6245    5.5025 N   0  0  0  0  0  0  0  0  0  0  0  0
   37.6797  -45.2842    4.4528 O   0  0  0  0  0  0  0  0  0  0  0  0
   38.3778  -46.4365    7.3729 C   0  0  0  0  0  0  0  0  0  0  0  0
   41.7925  -44.3497   10.8904 C   0  0  0  0  0  0  0  0  0  0  0  0
   42.9991  -44.0500   10.4964 O   0  0  0  0  0  0  0  0  0  0  0  0
   44.4376  -44.8416    7.1553 C   0  0  0  0  0  0  0  0  0  0  0  0
  1  2  1  0  0  0  0
  2  3  2  0  0  0  0
  3  4  1  0  0  0  0
  4  5  2  0  0  0  0
  5  6  1  0  0  0  0
  6  7  1  0  0  0  0
  6 23  2  0  0  0  0
  7  8  2  0  0  0  0
  8  9  1  0  0  0  0
  9 10  1  0  0  0  0
  9 21  2  0  0  0  0
 10 11  1  0  0  0  0
 11 12  1  0  0  0  0
 12 13  2  0  0  0  0
 13 14  1  0  0  0  0
 14 15  2  0  0  0  0
 15 16  1  0  0  0  0
 16 17  1  0  0  0  0
 16 20  2  0  0  0  0
 17 18  1  0  0  0  0
 17 19  2  0  0  0  0
 20 12  1  0  0  0  0
 21 22  1  0  0  0  0
 22  7  1  0  0  0  0
 23  2  1  0  0  0  0
M  END
>  <CHROM.1>
171.68462462,59.64322339,-117.53770996,171.76334110,90.18057884,41.26217166
-45.56616054,7.66033845,-0.24085909,-0.31359977,-1.69284281

>  <Name>
design_5

>  <RI>
0

>  <Rbt.Current_Directory>
/home/ziqiaoxu/icml18-jtnn/VAEdesign

>  <Rbt.Executable>
rbdock ($Id: //depot/dev/client3/rdock/2013.1/src/exe/rbdock.cxx#4 $)

>  <Rbt.Library>
libRbt.so (2013.1, Build901 2013/11/27)

>  <Rbt.Parameter_File>
/export/apps/rDock/src/rDock_2013.1_src//data/scripts/dock.prm

>  <Rbt.Receptor>
/home/ziqiaoxu/icml18-jtnn/VAEdesign/targets/RdRp-SARS-CoV-2/pocket_docking.prm

>  <SCORE>
-16.9205

>  <SCORE.INTER>
-23.0523

>  <SCORE.INTER.CONST>
1

>  <SCORE.INTER.POLAR>
-2.35034

>  <SCORE.INTER.REPUL>
0

>  <SCORE.INTER.ROT>
5

>  <SCORE.INTER.VDW>
-25.4612

>  <SCORE.INTER.norm>
-1.00228

>  <SCORE.INTRA>
6.13184

>  <SCORE.INTRA.DIHEDRAL>
13.0113

>  <SCORE.INTRA.DIHEDRAL.0>
2.94343

>  <SCORE.INTRA.POLAR>
0

>  <SCORE.INTRA.POLAR.0>
0

>  <SCORE.INTRA.REPUL>
0

>  <SCORE.INTRA.REPUL.0>
0

>  <SCORE.INTRA.VDW>
-0.373809

>  <SCORE.INTRA.VDW.0>
-0.730172

>  <SCORE.INTRA.norm>
0.266602

>  <SCORE.RESTR>
0

>  <SCORE.RESTR.CAVITY>
0

>  <SCORE.RESTR.norm>
0

>  <SCORE.SYSTEM>
0

>  <SCORE.SYSTEM.CONST>
0

>  <SCORE.SYSTEM.DIHEDRAL>
0

>  <SCORE.SYSTEM.norm>
0

>  <SCORE.heavy>
23

>  <SCORE.norm>
-0.735674

$$$$
design_2
 OpenBabel05252019093D

 24 25  0  0  0  0  0  0  0  0999 V2000
   38.9730  -48.8374    6.6285 C   0  0  0  0  0  0  0  0  0  0  0  0
   39.4045  -47.9530    7.6689 N   0  0  0  0  0  0  0  0  0  0  0  0
   40.4934  -47.0814    7.4686 C   0  0  0  0  0  0  0  0  0  0  0  0
   41.0764  -47.0999    6.3539 O   0  0  0  0  0  0  0  0  0  0  0  0
   40.9853  -46.1511    8.4914 C   0  0  0  0  0  0  0  0  0  0  0  0
   40.3157  -45.9193    9.6729 C   0  0  0  0  0  0  0  0  0  0  0  0
   40.8278  -45.0227   10.6174 C   0  0  0  0  0  0  0  0  0  0  0  0
   42.0098  -44.3451   10.4024 C   0  0  0  0  0  0  0  0  0  0  0  0
   42.6806  -44.5682    9.2344 C   0  0  0  0  0  0  0  0  0  0  0  0
   43.9639  -43.9110    8.8622 C   0  0  0  0  0  0  0  0  0  0  0  0
   44.6695  -44.7549    7.9375 N   0  0  0  0  0  0  0  0  0  0  0  0
   44.5091  -44.6611    6.5349 C   0  0  0  0  0  0  0  0  0  0  0  0
   43.7287  -43.8200    6.0508 O   0  0  0  0  0  0  0  0  0  0  0  0
   45.2368  -45.5250    5.6807 N   0  0  0  0  0  0  0  0  0  0  0  0
   45.0494  -45.4040    4.2722 C   0  0  0  0  0  0  0  0  0  0  0  0
   45.9552  -46.1525    3.4099 C   0  0  0  0  0  0  0  0  0  0  0  0
   47.0940  -46.7628    3.8495 C   0  0  0  0  0  0  0  0  0  0  0  0
   47.8833  -47.4464    2.9503 C   0  0  0  0  0  0  0  0  0  0  0  0
   47.5316  -47.5149    1.6288 C   0  0  0  0  0  0  0  0  0  0  0  0
   46.3990  -46.9021    1.2184 N   0  0  0  0  0  0  0  0  0  0  0  0
   45.6059  -46.2295    2.0552 C   0  0  0  0  0  0  0  0  0  0  0  0
   44.4506  -45.6068    1.6252 O   0  0  0  0  0  0  0  0  0  0  0  0
   44.0240  -45.8339    0.2846 C   0  0  0  0  0  0  0  0  0  0  0  0
   42.1636  -45.4649    8.2955 C   0  0  0  0  0  0  0  0  0  0  0  0
  1  2  1  0  0  0  0
  2  3  1  0  0  0  0
  3  4  2  0  0  0  0
  3  5  1  0  0  0  0
  5  6  2  0  0  0  0
  6  7  1  0  0  0  0
  7  8  2  0  0  0  0
  8  9  1  0  0  0  0
  9 10  1  0  0  0  0
  9 24  2  0  0  0  0
 10 11  1  0  0  0  0
 11 12  1  0  0  0  0
 12 13  2  0  0  0  0
 12 14  1  0  0  0  0
 14 15  1  0  0  0  0
 15 16  1  0  0  0  0
 16 17  2  0  0  0  0
 17 18  1  0  0  0  0
 18 19  2  0  0  0  0
 19 20  1  0  0  0  0
 20 21  2  0  0  0  0
 21 22  1  0  0  0  0
 21 16  1  0  0  0  0
 22 23  1  0  0  0  0
 24  5  1  0  0  0  0
M  END
>  <CHROM.1>
-8.99643922,154.48448100,90.20493295,170.67611147,-11.82846329,-172.31068153
43.51751976,-45.96580793,5.83247159,2.29715676,0.44137416,1.12541839

>  <Name>
design_2

>  <RI>
0

>  <Rbt.Current_Directory>
/home/ziqiaoxu/icml18-jtnn/VAEdesign

>  <Rbt.Executable>
rbdock ($Id: //depot/dev/client3/rdock/2013.1/src/exe/rbdock.cxx#4 $)

>  <Rbt.Library>
libRbt.so (2013.1, Build901 2013/11/27)

>  <Rbt.Parameter_File>
/export/apps/rDock/src/rDock_2013.1_src//data/scripts/dock.prm

>  <Rbt.Receptor>
/home/ziqiaoxu/icml18-jtnn/VAEdesign/targets/RdRp-SARS-CoV-2/pocket_docking.prm

>  <SCORE>
-19.5205

>  <SCORE.INTER>
-20.0668

>  <SCORE.INTER.CONST>
1

>  <SCORE.INTER.POLAR>
-1.7686

>  <SCORE.INTER.REPUL>
0.000951513

>  <SCORE.INTER.ROT>
6

>  <SCORE.INTER.VDW>
-25.4583

>  <SCORE.INTER.norm>
-0.836117

>  <SCORE.INTRA>
0.546341

>  <SCORE.INTRA.DIHEDRAL>
0.404828

>  <SCORE.INTRA.DIHEDRAL.0>
3.83945

>  <SCORE.INTRA.POLAR>
0

>  <SCORE.INTRA.POLAR.0>
0

>  <SCORE.INTRA.REPUL>
0

>  <SCORE.INTRA.REPUL.0>
0

>  <SCORE.INTRA.VDW>
0.343927

>  <SCORE.INTRA.VDW.0>
-0.103059

>  <SCORE.INTRA.norm>
0.0227642

>  <SCORE.RESTR>
0

>  <SCORE.RESTR.CAVITY>
0

>  <SCORE.RESTR.norm>
0

>  <SCORE.SYSTEM>
0

>  <SCORE.SYSTEM.CONST>
0

>  <SCORE.SYSTEM.DIHEDRAL>
0

>  <SCORE.SYSTEM.norm>
0

>  <SCORE.heavy>
24

>  <SCORE.norm>
-0.813352

$$$$
design_6
 OpenBabel05252019093D

 25 27  0  0  0  0  0  0  0  0999 V2000
   41.4301  -46.3468    5.4016 C   0  0  0  0  0  0  0  0  0  0  0  0
   40.5223  -47.1136    6.2991 C   0  0  0  0  0  0  0  0  0  0  0  0
   39.6323  -48.0029    5.6825 C   0  0  0  0  0  0  0  0  0  0  0  0
   38.7104  -48.7152    6.4042 C   0  0  0  0  0  0  0  0  0  0  0  0
   38.6949  -48.5197    7.7686 C   0  0  0  0  0  0  0  0  0  0  0  0
   39.5550  -47.6603    8.3751 C   0  0  0  0  0  0  0  0  0  0  0  0
   40.5133  -46.9211    7.6289 C   0  0  0  0  0  0  0  0  0  0  0  0
   41.3564  -46.0007    8.3791 C   0  0  0  0  0  0  0  0  0  0  0  0
   41.0261  -45.2516    9.4588 C   0  0  0  0  0  0  0  0  0  0  0  0
   41.9193  -44.3407   10.0546 C   0  0  0  0  0  0  0  0  0  0  0  0
   43.1800  -44.1858    9.5389 C   0  0  0  0  0  0  0  0  0  0  0  0
   44.0211  -43.3812   10.0364 O   0  0  0  0  0  0  0  0  0  0  0  0
   43.4790  -44.9386    8.4692 N   0  0  0  0  0  0  0  0  0  0  0  0
   44.8174  -44.7722    7.9230 C   0  0  0  0  0  0  0  0  0  0  0  0
   44.7810  -44.6084    6.4455 C   0  0  0  0  0  0  0  0  0  0  0  0
   44.2298  -43.5708    5.9983 O   0  0  0  0  0  0  0  0  0  0  0  0
   45.3294  -45.5532    5.5568 N   0  0  0  0  0  0  0  0  0  0  0  0
   45.3242  -45.4514    4.1258 C   0  0  0  0  0  0  0  0  0  0  0  0
   46.4601  -46.1907    3.5547 C   0  0  0  0  0  0  0  0  0  0  0  0
   47.7304  -45.9283    4.0079 C   0  0  0  0  0  0  0  0  0  0  0  0
   48.8231  -46.6105    3.4823 C   0  0  0  0  0  0  0  0  0  0  0  0
   48.6342  -47.5505    2.5067 C   0  0  0  0  0  0  0  0  0  0  0  0
   47.3731  -47.8383    2.0296 C   0  0  0  0  0  0  0  0  0  0  0  0
   46.3086  -47.1425    2.5728 C   0  0  0  0  0  0  0  0  0  0  0  0
   42.6431  -45.7833    7.9222 N   0  0  0  0  0  0  0  0  0  0  0  0
  1  2  1  0  0  0  0
  2  3  2  0  0  0  0
  3  4  1  0  0  0  0
  4  5  2  0  0  0  0
  5  6  1  0  0  0  0
  6  7  2  0  0  0  0
  7  8  1  0  0  0  0
  7  2  1  0  0  0  0
  8  9  1  0  0  0  0
  9 10  2  0  0  0  0
 10 11  1  0  0  0  0
 11 12  2  0  0  0  0
 11 13  1  0  0  0  0
 13 14  1  0  0  0  0
 13 25  1  0  0  0  0
 14 15  1  0  0  0  0
 15 16  2  0  0  0  0
 15 17  1  0  0  0  0
 17 18  1  0  0  0  0
 18 19  1  0  0  0  0
 19 20  2  0  0  0  0
 20 21  1  0  0  0  0
 21 22  2  0  0  0  0
 22 23  1  0  0  0  0
 23 24  2  0  0  0  0
 24 19  1  0  0  0  0
 25  8  2  0  0  0  0
M  END
>  <CHROM.1>
142.51803679,-132.49174970,65.76734127,153.10088888,-53.16894135,43.49124915
-46.04349959,6.40236811,2.65539063,0.40063407,0.92448473

>  <Name>
design_6

>  <RI>
0

>  <Rbt.Current_Directory>
/home/ziqiaoxu/icml18-jtnn/VAEdesign

>  <Rbt.Executable>
rbdock ($Id: //depot/dev/client3/rdock/2013.1/src/exe/rbdock.cxx#4 $)

>  <Rbt.Library>
libRbt.so (2013.1, Build901 2013/11/27)

>  <Rbt.Parameter_File>
/export/apps/rDock/src/rDock_2013.1_src//data/scripts/dock.prm

>  <Rbt.Receptor>
/home/ziqiaoxu/icml18-jtnn/VAEdesign/targets/RdRp-SARS-CoV-2/pocket_docking.prm

>  <SCORE>
-18.8258

>  <SCORE.INTER>
-18.9337

>  <SCORE.INTER.CONST>
1

>  <SCORE.INTER.POLAR>
-1.14017

>  <SCORE.INTER.REPUL>
0

>  <SCORE.INTER.ROT>
5

>  <SCORE.INTER.VDW>
-25.4572

>  <SCORE.INTER.norm>
-0.757349

>  <SCORE.INTRA>
0.107946

>  <SCORE.INTRA.DIHEDRAL>
0.509741

>  <SCORE.INTRA.DIHEDRAL.0>
6.69254

>  <SCORE.INTRA.POLAR>
0

>  <SCORE.INTRA.POLAR.0>
0

>  <SCORE.INTRA.REPUL>
0

>  <SCORE.INTRA.REPUL.0>
0

>  <SCORE.INTRA.VDW>
-0.146924

>  <SCORE.INTRA.VDW.0>
-1.58466

>  <SCORE.INTRA.norm>
0.00431785

>  <SCORE.RESTR>
0

>  <SCORE.RESTR.CAVITY>
0

>  <SCORE.RESTR.norm>
0

>  <SCORE.SYSTEM>
0

>  <SCORE.SYSTEM.CONST>
0

>  <SCORE.SYSTEM.DIHEDRAL>
0

>  <SCORE.SYSTEM.norm>
0

>  <SCORE.heavy>
25

>  <SCORE.norm>
-0.753031

$$$$
design_10
 OpenBabel05252019093D

 24 27  0  0  0  0  0  0  0  0999 V2000
   44.7653  -46.3217    0.3236 C   0  0  0  0  0  0  0  0  0  0  0  0
   45.3002  -46.2455    1.7390 C   0  0  0  0  0  0  0  0  0  0  0  0
   44.8207  -45.5498    2.7539 N   0  0  0  0  0  0  0  0  0  0  0  0
   45.4099  -45.5993    3.9141 C   0  0  0  0  0  0  0  0  0  0  0  0
   44.9010  -44.8207    5.1115 C   0  0  0  0  0  0  0  0  0  0  0  0
   44.6726  -45.7078    6.2235 N   0  0  0  0  0  0  0  0  0  0  0  0
   43.4565  -45.7194    6.9589 C   0  0  0  0  0  0  0  0  0  0  0  0
   42.3667  -46.3796    6.5337 N   0  0  0  0  0  0  0  0  0  0  0  0
   41.2137  -46.4123    7.1945 C   0  0  0  0  0  0  0  0  0  0  0  0
   40.0345  -47.1257    6.7362 C   0  0  0  0  0  0  0  0  0  0  0  0
   40.0175  -48.5109    6.7035 C   0  0  0  0  0  0  0  0  0  0  0  0
   38.8745  -49.1485    6.2602 C   0  0  0  0  0  0  0  0  0  0  0  0
   37.7731  -48.4874    5.8574 N   0  0  0  0  0  0  0  0  0  0  0  0
   37.7726  -47.1490    5.8825 C   0  0  0  0  0  0  0  0  0  0  0  0
   38.8899  -46.4848    6.3166 C   0  0  0  0  0  0  0  0  0  0  0  0
   41.1408  -45.7430    8.3565 N   0  0  0  0  0  0  0  0  0  0  0  0
   42.1778  -45.0468    8.8747 C   0  0  0  0  0  0  0  0  0  0  0  0
   43.3553  -45.0408    8.1537 C   0  0  0  0  0  0  0  0  0  0  0  0
   44.2247  -44.2649    8.9089 C   0  0  0  0  0  0  0  0  0  0  0  0
   43.5432  -43.8661    9.9971 N   0  0  0  0  0  0  0  0  0  0  0  0
   42.3129  -44.3255    9.9943 N   0  0  0  0  0  0  0  0  0  0  0  0
   41.2594  -44.1213   10.9887 C   0  0  0  0  0  0  0  0  0  0  0  0
   46.5270  -46.3951    4.0153 C   0  0  0  0  0  0  0  0  0  0  0  0
   46.6534  -47.0187    2.4321 S   0  0  0  0  0  0  0  0  0  0  0  0
  1  2  1  0  0  0  0
  2  3  2  0  0  0  0
  3  4  1  0  0  0  0
  4  5  1  0  0  0  0
  4 23  2  0  0  0  0
  5  6  1  0  0  0  0
  6  7  1  0  0  0  0
  7  8  2  0  0  0  0
  8  9  1  0  0  0  0
  9 10  1  0  0  0  0
  9 16  2  0  0  0  0
 10 11  2  0  0  0  0
 11 12  1  0  0  0  0
 12 13  2  0  0  0  0
 13 14  1  0  0  0  0
 14 15  2  0  0  0  0
 15 10  1  0  0  0  0
 16 17  1  0  0  0  0
 17 18  2  0  0  0  0
 18 19  1  0  0  0  0
 18  7  1  0  0  0  0
 19 20  2  0  0  0  0
 20 21  1  0  0  0  0
 21 22  1  0  0  0  0
 21 17  1  0  0  0  0
 23 24  1  0  0  0  0
 24  2  1  0  0  0  0
M  END
>  <CHROM.1>
124.94548036,-129.71565535,81.78025684,68.56080724,42.80006920,-46.09977066
6.05166605,0.74202145,-0.37788207,-1.99161324

>  <Name>
design_10

>  <RI>
0

>  <Rbt.Current_Directory>
/home/ziqiaoxu/icml18-jtnn/VAEdesign

>  <Rbt.Executable>
rbdock ($Id: //depot/dev/client3/rdock/2013.1/src/exe/rbdock.cxx#4 $)

>  <Rbt.Library>
libRbt.so (2013.1, Build901 2013/11/27)

>  <Rbt.Parameter_File>
/export/apps/rDock/src/rDock_2013.1_src//data/scripts/dock.prm

>  <Rbt.Receptor>
/home/ziqiaoxu/icml18-jtnn/VAEdesign/targets/RdRp-SARS-CoV-2/pocket_docking.prm

>  <SCORE>
-11.6584

>  <SCORE.INTER>
-19.3749

>  <SCORE.INTER.CONST>
1

>  <SCORE.INTER.POLAR>
-0.976793

>  <SCORE.INTER.REPUL>
0

>  <SCORE.INTER.ROT>
4

>  <SCORE.INTER.VDW>
-25.4538

>  <SCORE.INTER.norm>
-0.807287

>  <SCORE.INTRA>
7.71653

>  <SCORE.INTRA.DIHEDRAL>
16.6608

>  <SCORE.INTRA.DIHEDRAL.0>
4.84

>  <SCORE.INTRA.POLAR>
0.0780588

>  <SCORE.INTRA.POLAR.0>
-0.0780588

>  <SCORE.INTRA.REPUL>
0

>  <SCORE.INTRA.REPUL.0>
0

>  <SCORE.INTRA.VDW>
-0.879263

>  <SCORE.INTRA.VDW.0>
-0.86237

>  <SCORE.INTRA.norm>
0.321522

>  <SCORE.RESTR>
0

>  <SCORE.RESTR.CAVITY>
0

>  <SCORE.RESTR.norm>
0

>  <SCORE.SYSTEM>
0

>  <SCORE.SYSTEM.CONST>
0

>  <SCORE.SYSTEM.DIHEDRAL>
0

>  <SCORE.SYSTEM.norm>
0

>  <SCORE.heavy>
24

>  <SCORE.norm>
-0.485765

$$$$
design_3
 OpenBabel05252019093D

 23 25  0  0  0  0  0  0  0  0999 V2000
   48.1391  -42.9211    6.8791 C   0  0  0  0  0  0  0  0  0  0  0  0
   47.1708  -43.8963    6.2941 C   0  0  0  0  0  0  0  0  0  0  0  0
   47.4280  -44.5303    5.1117 C   0  0  0  0  0  0  0  0  0  0  0  0
   46.5398  -45.4390    4.5536 C   0  0  0  0  0  0  0  0  0  0  0  0
   46.8356  -46.1134    3.2765 C   0  0  0  0  0  0  0  0  0  0  0  0
   45.3726  -45.6935    5.2274 C   0  0  0  0  0  0  0  0  0  0  0  0
   45.0957  -45.0506    6.4405 C   0  0  0  0  0  0  0  0  0  0  0  0
   43.9046  -45.3551    7.0978 N   0  0  0  0  0  0  0  0  0  0  0  0
   43.3181  -44.7769    8.2263 C   0  0  0  0  0  0  0  0  0  0  0  0
   43.8482  -43.8211    8.8245 O   0  0  0  0  0  0  0  0  0  0  0  0
   42.0245  -45.3057    8.7384 C   0  0  0  0  0  0  0  0  0  0  0  0
   41.4422  -44.8501    9.8942 C   0  0  0  0  0  0  0  0  0  0  0  0
   40.2510  -45.3675   10.3444 C   0  0  0  0  0  0  0  0  0  0  0  0
   39.5927  -46.3873    9.6236 C   0  0  0  0  0  0  0  0  0  0  0  0
   40.1560  -46.8470    8.4775 C   0  0  0  0  0  0  0  0  0  0  0  0
   39.5317  -47.8637    7.6344 C   0  0  0  0  0  0  0  0  0  0  0  0
   38.7006  -48.8403    8.1410 N   0  0  0  0  0  0  0  0  0  0  0  0
   38.3516  -49.5966    7.1422 N   0  0  0  0  0  0  0  0  0  0  0  0
   38.9051  -49.1668    6.0355 N   0  0  0  0  0  0  0  0  0  0  0  0
   39.6471  -48.0794    6.3430 N   0  0  0  0  0  0  0  0  0  0  0  0
   40.4225  -47.3763    5.3411 C   0  0  0  0  0  0  0  0  0  0  0  0
   41.3800  -46.2966    8.0412 C   0  0  0  0  0  0  0  0  0  0  0  0
   45.9911  -44.1542    6.9744 C   0  0  0  0  0  0  0  0  0  0  0  0
  1  2  1  0  0  0  0
  2  3  2  0  0  0  0
  3  4  1  0  0  0  0
  4  5  1  0  0  0  0
  4  6  2  0  0  0  0
  6  7  1  0  0  0  0
  7  8  1  0  0  0  0
  7 23  2  0  0  0  0
  8  9  1  0  0  0  0
  9 10  2  0  0  0  0
  9 11  1  0  0  0  0
 11 12  2  0  0  0  0
 12 13  1  0  0  0  0
 13 14  2  0  0  0  0
 14 15  1  0  0  0  0
 15 16  1  0  0  0  0
 15 22  2  0  0  0  0
 16 17  2  0  0  0  0
 17 18  1  0  0  0  0
 18 19  2  0  0  0  0
 19 20  1  0  0  0  0
 20 21  1  0  0  0  0
 20 16  1  0  0  0  0
 22 11  1  0  0  0  0
 23  2  1  0  0  0  0
M  END
>  <CHROM.1>
-172.58078553,175.18914750,-29.53683895,42.78247104,-46.00223620,7.13040216
0.03532265,0.48900212,0.97411492

>  <Name>
design_3

>  <RI>
0

>  <Rbt.Current_Directory>
/home/ziqiaoxu/icml18-jtnn/VAEdesign

>  <Rbt.Executable>
rbdock ($Id: //depot/dev/client3/rdock/2013.1/src/exe/rbdock.cxx#4 $)

>  <Rbt.Library>
libRbt.so (2013.1, Build901 2013/11/27)

>  <Rbt.Parameter_File>
/export/apps/rDock/src/rDock_2013.1_src//data/scripts/dock.prm

>  <Rbt.Receptor>
/home/ziqiaoxu/icml18-jtnn/VAEdesign/targets/RdRp-SARS-CoV-2/pocket_docking.prm

>  <SCORE>
-16.5562

>  <SCORE.INTER>
-16.5122

>  <SCORE.INTER.CONST>
1

>  <SCORE.INTER.POLAR>
0

>  <SCORE.INTER.REPUL>
0.108239

>  <SCORE.INTER.ROT>
3

>  <SCORE.INTER.VDW>
-25.4534

>  <SCORE.INTER.norm>
-0.717922

>  <SCORE.INTRA>
-0.0439891

>  <SCORE.INTRA.DIHEDRAL>
-0.841798

>  <SCORE.INTRA.DIHEDRAL.0>
3.85838

>  <SCORE.INTRA.POLAR>
0

>  <SCORE.INTRA.POLAR.0>
0

>  <SCORE.INTRA.REPUL>
0

>  <SCORE.INTRA.REPUL.0>
0

>  <SCORE.INTRA.VDW>
0.37691

>  <SCORE.INTRA.VDW.0>
-0.264231

>  <SCORE.INTRA.norm>
-0.00191257

>  <SCORE.RESTR>
0

>  <SCORE.RESTR.CAVITY>
0

>  <SCORE.RESTR.norm>
0

>  <SCORE.SYSTEM>
0

>  <SCORE.SYSTEM.CONST>
0

>  <SCORE.SYSTEM.DIHEDRAL>
0

>  <SCORE.SYSTEM.norm>
0

>  <SCORE.heavy>
23

>  <SCORE.norm>
-0.719835

$$$$
design_11
 OpenBabel05252019093D

 24 26  0  0  0  0  0  0  0  0999 V2000
   40.1413  -46.1529   10.7632 N   0  0  0  0  0  0  0  0  0  0  0  0
   40.1077  -46.1189    9.0187 S   0  0  0  0  0  0  0  0  0  0  0  0
   39.7431  -47.4712    8.4824 O   0  0  0  0  0  0  0  0  0  0  0  0
   39.0702  -45.0702    8.6429 O   0  0  0  0  0  0  0  0  0  0  0  0
   41.6568  -45.5964    8.3857 C   0  0  0  0  0  0  0  0  0  0  0  0
   42.1052  -46.0623    7.1739 C   0  0  0  0  0  0  0  0  0  0  0  0
   43.3256  -45.6421    6.6487 C   0  0  0  0  0  0  0  0  0  0  0  0
   44.1217  -44.7374    7.3394 C   0  0  0  0  0  0  0  0  0  0  0  0
   45.4103  -44.3127    6.7228 C   0  0  0  0  0  0  0  0  0  0  0  0
   45.8376  -45.1479    5.6424 N   0  0  0  0  0  0  0  0  0  0  0  0
   45.8131  -44.8266    4.2630 C   0  0  0  0  0  0  0  0  0  0  0  0
   45.3701  -43.6788    3.9550 O   0  0  0  0  0  0  0  0  0  0  0  0
   46.2673  -45.7572    3.2418 C   0  0  0  0  0  0  0  0  0  0  0  0
   47.2572  -46.6826    3.5810 C   0  0  0  0  0  0  0  0  0  0  0  0
   47.7549  -47.5851    2.6646 C   0  0  0  0  0  0  0  0  0  0  0  0
   47.2765  -47.5921    1.3739 C   0  0  0  0  0  0  0  0  0  0  0  0
   46.2926  -46.6829    1.0121 C   0  0  0  0  0  0  0  0  0  0  0  0
   45.8409  -46.7185   -0.2817 C   0  0  0  0  0  0  0  0  0  0  0  0
   44.8602  -45.8040   -0.6295 C   0  0  0  0  0  0  0  0  0  0  0  0
   44.3714  -44.9154    0.2721 C   0  0  0  0  0  0  0  0  0  0  0  0
   44.8074  -44.8656    1.5605 C   0  0  0  0  0  0  0  0  0  0  0  0
   45.7966  -45.7704    1.9569 C   0  0  0  0  0  0  0  0  0  0  0  0
   43.6563  -44.2837    8.5473 C   0  0  0  0  0  0  0  0  0  0  0  0
   42.4486  -44.6978    9.0720 C   0  0  0  0  0  0  0  0  0  0  0  0
  1  2  1  0  0  0  0
  2  3  2  0  0  0  0
  2  4  2  0  0  0  0
  2  5  1  0  0  0  0
  5  6  2  0  0  0  0
  6  7  1  0  0  0  0
  7  8  2  0  0  0  0
  8  9  1  0  0  0  0
  8 23  1  0  0  0  0
  9 10  1  0  0  0  0
 10 11  1  0  0  0  0
 11 12  2  0  0  0  0
 11 13  1  0  0  0  0
 13 14  2  0  0  0  0
 14 15  1  0  0  0  0
 15 16  2  0  0  0  0
 16 17  1  0  0  0  0
 17 18  2  0  0  0  0
 18 19  1  0  0  0  0
 19 20  2  0  0  0  0
 20 21  1  0  0  0  0
 21 22  2  0  0  0  0
 22 13  1  0  0  0  0
 22 17  1  0  0  0  0
 23 24  2  0  0  0  0
 24  5  1  0  0  0  0
M  END
>  <CHROM.1>
-79.28631045,148.91813225,-15.14610239,106.71786594,-28.86691246,43.80352763
-45.69634522,5.32890976,-2.21012352,-0.21335480,-1.76306161

>  <Name>
design_11

>  <RI>
0

>  <Rbt.Current_Directory>
/home/ziqiaoxu/icml18-jtnn/VAEdesign

>  <Rbt.Executable>
rbdock ($Id: //depot/dev/client3/rdock/2013.1/src/exe/rbdock.cxx#4 $)

>  <Rbt.Library>
libRbt.so (2013.1, Build901 2013/11/27)

>  <Rbt.Parameter_File>
/export/apps/rDock/src/rDock_2013.1_src//data/scripts/dock.prm

>  <Rbt.Receptor>
/home/ziqiaoxu/icml18-jtnn/VAEdesign/targets/RdRp-SARS-CoV-2/pocket_docking.prm

>  <SCORE>
-28.313

>  <SCORE.INTER>
-25.7361

>  <SCORE.INTER.CONST>
1

>  <SCORE.INTER.POLAR>
-3.1439

>  <SCORE.INTER.REPUL>
0

>  <SCORE.INTER.ROT>
5

>  <SCORE.INTER.VDW>
-25.4469

>  <SCORE.INTER.norm>
-1.07234

>  <SCORE.INTRA>
-2.57687

>  <SCORE.INTRA.DIHEDRAL>
-7.61983

>  <SCORE.INTRA.DIHEDRAL.0>
14.4383

>  <SCORE.INTRA.POLAR>
0

>  <SCORE.INTRA.POLAR.0>
0

>  <SCORE.INTRA.REPUL>
0

>  <SCORE.INTRA.REPUL.0>
0

>  <SCORE.INTRA.VDW>
1.23305

>  <SCORE.INTRA.VDW.0>
-2.46485

>  <SCORE.INTRA.norm>
-0.10737

>  <SCORE.RESTR>
0

>  <SCORE.RESTR.CAVITY>
0

>  <SCORE.RESTR.norm>
0

>  <SCORE.SYSTEM>
0

>  <SCORE.SYSTEM.CONST>
0

>  <SCORE.SYSTEM.DIHEDRAL>
0

>  <SCORE.SYSTEM.norm>
0

>  <SCORE.heavy>
24

>  <SCORE.norm>
-1.17971

$$$$
design_11
 OpenBabel05252019093D

 25 28  0  0  0  0  0  0  0  0999 V2000
   45.5152  -45.3230    5.2790 C   0  0  0  0  0  0  0  0  0  0  0  0
   44.4761  -45.3584    6.3497 C   0  0  0  0  0  0  0  0  0  0  0  0
   43.3100  -45.9891    6.1939 N   0  0  0  0  0  0  0  0  0  0  0  0
   42.5908  -45.8493    7.3124 C   0  0  0  0  0  0  0  0  0  0  0  0
   41.3354  -46.3024    7.6653 C   0  0  0  0  0  0  0  0  0  0  0  0
   40.5522  -47.0497    6.8173 C   0  0  0  0  0  0  0  0  0  0  0  0
   39.2934  -47.4951    7.1917 C   0  0  0  0  0  0  0  0  0  0  0  0
   38.8125  -47.1820    8.4462 C   0  0  0  0  0  0  0  0  0  0  0  0
   39.6000  -46.4324    9.2949 C   0  0  0  0  0  0  0  0  0  0  0  0
   40.8653  -45.9842    8.9197 C   0  0  0  0  0  0  0  0  0  0  0  0
   41.6449  -45.2658    9.7053 N   0  0  0  0  0  0  0  0  0  0  0  0
   42.8720  -44.8025    9.4068 C   0  0  0  0  0  0  0  0  0  0  0  0
   43.6401  -44.0349   10.3242 N   0  0  0  0  0  0  0  0  0  0  0  0
   45.0525  -43.9311   10.3127 C   0  0  0  0  0  0  0  0  0  0  0  0
   45.6959  -43.8146   11.6728 C   0  0  0  0  0  0  0  0  0  0  0  0
   47.1183  -44.2900   11.4780 C   0  0  0  0  0  0  0  0  0  0  0  0
   47.4080  -45.6573   11.2370 N   0  0  0  0  0  0  0  0  0  0  0  0
   48.0764  -43.5063   11.5220 O   0  0  0  0  0  0  0  0  0  0  0  0
   45.0816  -44.7369   12.6810 C   0  0  0  0  0  0  0  0  0  0  0  0
   45.1862  -44.1869   14.0656 C   0  0  0  0  0  0  0  0  0  0  0  0
   44.5994  -42.9616   14.2295 O   0  0  0  0  0  0  0  0  0  0  0  0
   44.7864  -42.0412   13.2473 C   0  0  0  0  0  0  0  0  0  0  0  0
   45.7944  -42.4368   12.2097 C   0  0  0  0  0  0  0  0  0  0  0  0
   43.3436  -45.1152    8.1638 N   0  0  0  0  0  0  0  0  0  0  0  0
   44.4931  -44.8222    7.5627 N   0  0  0  0  0  0  0  0  0  0  0  0
  1  2  1  0  0  0  0
  2  3  1  0  0  0  0
  3  4  2  0  0  0  0
  4  5  1  0  0  0  0
  5  6  2  0  0  0  0
  6  7  1  0  0  0  0
  7  8  2  0  0  0  0
  8  9  1  0  0  0  0
  9 10  2  0  0  0  0
 10 11  1  0  0  0  0
 10  5  1  0  0  0  0
 11 12  2  0  0  0  0
 12 13  1  0  0  0  0
 12 24  1  0  0  0  0
 13 14  1  0  0  0  0
 14 15  1  0  0  0  0
 15 16  1  0  0  0  0
 15 19  1  0  0  0  0
 16 17  1  0  0  0  0
 16 18  2  0  0  0  0
 19 20  1  0  0  0  0
 20 21  1  0  0  0  0
 21 22  1  0  0  0  0
 22 23  1  0  0  0  0
 23 15  1  0  0  0  0
 24 25  1  0  0  0  0
 24  4  1  0  0  0  0
 25  2  2  0  0  0  0
M  END
>  <CHROM.1>
155.52281390,-145.38648872,157.08651508,-70.54459069,43.75539565,-44.93269276
9.73786940,-2.29381404,0.25714244,1.28281126

>  <Name>
design_11

>  <RI>
0

>  <Rbt.Current_Directory>
/home/ziqiaoxu/icml18-jtnn/VAEdesign

>  <Rbt.Executable>
rbdock ($Id: //depot/dev/client3/rdock/2013.1/src/exe/rbdock.cxx#4 $)

>  <Rbt.Library>
libRbt.so (2013.1, Build901 2013/11/27)

>  <Rbt.Parameter_File>
/export/apps/rDock/src/rDock_2013.1_src//data/scripts/dock.prm

>  <Rbt.Receptor>
/home/ziqiaoxu/icml18-jtnn/VAEdesign/targets/RdRp-SARS-CoV-2/pocket_docking.prm

>  <SCORE>
-19.6331

>  <SCORE.INTER>
-21.394

>  <SCORE.INTER.CONST>
1

>  <SCORE.INTER.POLAR>
-1.57612

>  <SCORE.INTER.REPUL>
0.00216531

>  <SCORE.INTER.ROT>
4

>  <SCORE.INTER.VDW>
-25.446

>  <SCORE.INTER.norm>
-0.855759

>  <SCORE.INTRA>
1.76087

>  <SCORE.INTRA.DIHEDRAL>
4.10886

>  <SCORE.INTRA.DIHEDRAL.0>
2.45365

>  <SCORE.INTRA.POLAR>
0

>  <SCORE.INTRA.POLAR.0>
0

>  <SCORE.INTRA.REPUL>
0

>  <SCORE.INTRA.REPUL.0>
0

>  <SCORE.INTRA.VDW>
-0.293559

>  <SCORE.INTRA.VDW.0>
0.555208

>  <SCORE.INTRA.norm>
0.0704349

>  <SCORE.RESTR>
0

>  <SCORE.RESTR.CAVITY>
0

>  <SCORE.RESTR.norm>
0

>  <SCORE.SYSTEM>
0

>  <SCORE.SYSTEM.CONST>
0

>  <SCORE.SYSTEM.DIHEDRAL>
0

>  <SCORE.SYSTEM.norm>
0

>  <SCORE.heavy>
25

>  <SCORE.norm>
-0.785324

$$$$
design_5
 OpenBabel05252019093D

 26 28  0  0  0  0  0  0  0  0999 V2000
   40.4472  -37.6970    3.0758 C   0  0  0  0  0  0  0  0  0  0  0  0
   40.4014  -38.2644    1.6966 C   0  0  0  0  0  0  0  0  0  0  0  0
   41.0400  -39.5406    1.5937 N   0  0  0  0  0  0  0  0  0  0  0  0
   42.3166  -39.6695    0.9604 C   0  0  0  0  0  0  0  0  0  0  0  0
   42.9415  -38.7145    0.4587 O   0  0  0  0  0  0  0  0  0  0  0  0
   42.9501  -40.9893    0.8774 C   0  0  0  0  0  0  0  0  0  0  0  0
   44.0606  -41.2334    0.1196 C   0  0  0  0  0  0  0  0  0  0  0  0
   44.5747  -42.4955    0.0067 C   0  0  0  0  0  0  0  0  0  0  0  0
   43.9712  -43.5599    0.6752 C   0  0  0  0  0  0  0  0  0  0  0  0
   42.8508  -43.3533    1.4517 C   0  0  0  0  0  0  0  0  0  0  0  0
   42.2260  -44.4633    2.0802 N   0  0  0  0  0  0  0  0  0  0  0  0
   42.5947  -44.7668    3.4820 C   0  0  0  0  0  0  0  0  0  0  0  0
   43.4719  -44.1508    4.0359 O   0  0  0  0  0  0  0  0  0  0  0  0
   41.7838  -45.8186    4.0314 N   0  0  0  0  0  0  0  0  0  0  0  0
   42.0341  -46.0425    5.4403 C   0  0  0  0  0  0  0  0  0  0  0  0
   40.9377  -46.8069    6.0346 C   0  0  0  0  0  0  0  0  0  0  0  0
   40.2542  -47.8185    5.4283 C   0  0  0  0  0  0  0  0  0  0  0  0
   39.3403  -48.5723    6.1433 C   0  0  0  0  0  0  0  0  0  0  0  0
   39.1471  -48.2557    7.4815 C   0  0  0  0  0  0  0  0  0  0  0  0
   39.8128  -47.2342    8.1186 C   0  0  0  0  0  0  0  0  0  0  0  0
   39.5561  -46.8667    9.4393 C   0  0  0  0  0  0  0  0  0  0  0  0
   40.1923  -45.7850   10.0196 C   0  0  0  0  0  0  0  0  0  0  0  0
   41.0890  -45.0887    9.2262 C   0  0  0  0  0  0  0  0  0  0  0  0
   41.3460  -45.4321    7.9660 N   0  0  0  0  0  0  0  0  0  0  0  0
   40.7101  -46.5128    7.4021 C   0  0  0  0  0  0  0  0  0  0  0  0
   42.3568  -42.0661    1.5386 C   0  0  0  0  0  0  0  0  0  0  0  0
  1  2  1  0  0  0  0
  2  3  1  0  0  0  0
  3  4  1  0  0  0  0
  4  5  2  0  0  0  0
  4  6  1  0  0  0  0
  6  7  2  0  0  0  0
  7  8  1  0  0  0  0
  8  9  2  0  0  0  0
  9 10  1  0  0  0  0
 10 11  1  0  0  0  0
 10 26  2  0  0  0  0
 11 12  1  0  0  0  0
 12 13  2  0  0  0  0
 12 14  1  0  0  0  0
 14 15  1  0  0  0  0
 15 16  1  0  0  0  0
 16 17  2  0  0  0  0
 17 18  1  0  0  0  0
 18 19  2  0  0  0  0
 19 20  1  0  0  0  0
 20 21  2  0  0  0  0
 21 22  1  0  0  0  0
 22 23  2  0  0  0  0
 23 24  1  0  0  0  0
 24 25  2  0  0  0  0
 25 16  1  0  0  0  0
 25 20  1  0  0  0  0
 26  6  1  0  0  0  0
M  END
>  <CHROM.1>
-105.83620964,169.81241572,95.23156999,162.86798716,37.26638080,41.64140985
-43.79757528,4.12491403,1.10306989,1.04077378,-0.37552440

>  <Name>
design_5

>  <RI>
0

>  <Rbt.Current_Directory>
/home/ziqiaoxu/icml18-jtnn/VAEdesign

>  <Rbt.Executable>
rbdock ($Id: //depot/dev/client3/rdock/2013.1/src/exe/rbdock.cxx#4 $)

>  <Rbt.Library>
libRbt.so (2013.1, Build901 2013/11/27)

>  <Rbt.Parameter_File>
/export/apps/rDock/src/rDock_2013.1_src//data/scripts/dock.prm

>  <Rbt.Receptor>
/home/ziqiaoxu/icml18-jtnn/VAEdesign/targets/RdRp-SARS-CoV-2/pocket_docking.prm

>  <SCORE>
-20.6326

>  <SCORE.INTER>
-22.6426

>  <SCORE.INTER.CONST>
1

>  <SCORE.INTER.POLAR>
-2.23537

>  <SCORE.INTER.REPUL>
0

>  <SCORE.INTER.ROT>
5

>  <SCORE.INTER.VDW>
-25.4423

>  <SCORE.INTER.norm>
-0.870868

>  <SCORE.INTRA>
2.00996

>  <SCORE.INTRA.DIHEDRAL>
4.93277

>  <SCORE.INTRA.DIHEDRAL.0>
11.3242

>  <SCORE.INTRA.POLAR>
0

>  <SCORE.INTRA.POLAR.0>
0

>  <SCORE.INTRA.REPUL>
0

>  <SCORE.INTRA.REPUL.0>
0

>  <SCORE.INTRA.VDW>
-0.456427

>  <SCORE.INTRA.VDW.0>
-0.704951

>  <SCORE.INTRA.norm>
0.0773061

>  <SCORE.RESTR>
0

>  <SCORE.RESTR.CAVITY>
0

>  <SCORE.RESTR.norm>
0

>  <SCORE.SYSTEM>
0

>  <SCORE.SYSTEM.CONST>
0

>  <SCORE.SYSTEM.DIHEDRAL>
0

>  <SCORE.SYSTEM.norm>
0

>  <SCORE.heavy>
26

>  <SCORE.norm>
-0.793562

$$$$
design_4
 OpenBabel05252019093D

 26 28  0  0  0  0  0  0  0  0999 V2000
   41.1874  -39.0195    2.3047 C   0  0  0  0  0  0  0  0  0  0  0  0
   41.2228  -39.7263    1.1034 O   0  0  0  0  0  0  0  0  0  0  0  0
   42.4047  -40.2743    0.6292 C   0  0  0  0  0  0  0  0  0  0  0  0
   43.4016  -39.5032    0.1293 C   0  0  0  0  0  0  0  0  0  0  0  0
   44.5786  -40.0832   -0.3412 C   0  0  0  0  0  0  0  0  0  0  0  0
   44.6928  -41.4455   -0.2816 C   0  0  0  0  0  0  0  0  0  0  0  0
   43.6499  -42.2311    0.2399 C   0  0  0  0  0  0  0  0  0  0  0  0
   42.4808  -41.6870    0.7088 C   0  0  0  0  0  0  0  0  0  0  0  0
   41.4199  -42.3996    1.2856 N   0  0  0  0  0  0  0  0  0  0  0  0
   41.5070  -43.6534    1.8542 C   0  0  0  0  0  0  0  0  0  0  0  0
   42.6612  -44.2426    1.8380 O   0  0  0  0  0  0  0  0  0  0  0  0
   40.4704  -44.4646    2.4911 C   0  0  0  0  0  0  0  0  0  0  0  0
   40.7937  -45.4219    3.4609 N   0  0  0  0  0  0  0  0  0  0  0  0
   41.0662  -45.1169    4.8246 C   0  0  0  0  0  0  0  0  0  0  0  0
   41.0074  -43.9392    5.2214 O   0  0  0  0  0  0  0  0  0  0  0  0
   41.4372  -46.1861    5.7914 C   0  0  0  0  0  0  0  0  0  0  0  0
   42.4477  -45.6552    6.7637 C   0  0  0  0  0  0  0  0  0  0  0  0
   43.7772  -45.4947    6.3597 C   0  0  0  0  0  0  0  0  0  0  0  0
   44.7509  -44.9736    7.1643 C   0  0  0  0  0  0  0  0  0  0  0  0
   44.3880  -44.5902    8.4334 C   0  0  0  0  0  0  0  0  0  0  0  0
   43.0784  -44.7333    8.8754 C   0  0  0  0  0  0  0  0  0  0  0  0
   42.7147  -44.3271   10.1500 C   0  0  0  0  0  0  0  0  0  0  0  0
   41.4384  -44.4397   10.5974 C   0  0  0  0  0  0  0  0  0  0  0  0
   40.4614  -44.9664    9.7909 C   0  0  0  0  0  0  0  0  0  0  0  0
   40.8113  -45.3741    8.5206 C   0  0  0  0  0  0  0  0  0  0  0  0
   42.1069  -45.2729    8.0263 C   0  0  0  0  0  0  0  0  0  0  0  0
  1  2  1  0  0  0  0
  2  3  1  0  0  0  0
  3  4  2  0  0  0  0
  4  5  1  0  0  0  0
  5  6  2  0  0  0  0
  6  7  1  0  0  0  0
  7  8  2  0  0  0  0
  8  9  1  0  0  0  0
  8  3  1  0  0  0  0
  9 10  1  0  0  0  0
 10 11  2  0  0  0  0
 10 12  1  0  0  0  0
 12 13  1  0  0  0  0
 13 14  1  0  0  0  0
 14 15  2  0  0  0  0
 14 16  1  0  0  0  0
 16 17  1  0  0  0  0
 17 18  2  0  0  0  0
 18 19  1  0  0  0  0
 19 20  2  0  0  0  0
 20 21  1  0  0  0  0
 21 22  2  0  0  0  0
 22 23  1  0  0  0  0
 23 24  2  0  0  0  0
 24 25  1  0  0  0  0
 25 26  2  0  0  0  0
 26 17  1  0  0  0  0
 26 21  1  0  0  0  0
M  END
>  <CHROM.1>
-71.98612772,-156.04280694,-153.81878615,79.63697355,144.02305416,-75.98029583
42.26105282,-43.39688908,4.37440399,-1.45819417,1.00275212,1.95317109

>  <Name>
design_4

>  <RI>
0

>  <Rbt.Current_Directory>
/home/ziqiaoxu/icml18-jtnn/VAEdesign

>  <Rbt.Executable>
rbdock ($Id: //depot/dev/client3/rdock/2013.1/src/exe/rbdock.cxx#4 $)

>  <Rbt.Library>
libRbt.so (2013.1, Build901 2013/11/27)

>  <Rbt.Parameter_File>
/export/apps/rDock/src/rDock_2013.1_src//data/scripts/dock.prm

>  <Rbt.Receptor>
/home/ziqiaoxu/icml18-jtnn/VAEdesign/targets/RdRp-SARS-CoV-2/pocket_docking.prm

>  <SCORE>
-20.1249

>  <SCORE.INTER>
-21.2553

>  <SCORE.INTER.CONST>
1

>  <SCORE.INTER.POLAR>
-2.12229

>  <SCORE.INTER.REPUL>
0.000406793

>  <SCORE.INTER.ROT>
6

>  <SCORE.INTER.VDW>
-25.4415

>  <SCORE.INTER.norm>
-0.81751

>  <SCORE.INTRA>
1.13032

>  <SCORE.INTRA.DIHEDRAL>
4.56379

>  <SCORE.INTRA.DIHEDRAL.0>
6.28959

>  <SCORE.INTRA.POLAR>
0

>  <SCORE.INTRA.POLAR.0>
0

>  <SCORE.INTRA.REPUL>
0

>  <SCORE.INTRA.REPUL.0>
0

>  <SCORE.INTRA.VDW>
-1.15157

>  <SCORE.INTRA.VDW.0>
-0.432035

>  <SCORE.INTRA.norm>
0.043474

>  <SCORE.RESTR>
0

>  <SCORE.RESTR.CAVITY>
0

>  <SCORE.RESTR.norm>
0

>  <SCORE.SYSTEM>
0

>  <SCORE.SYSTEM.CONST>
0

>  <SCORE.SYSTEM.DIHEDRAL>
0

>  <SCORE.SYSTEM.norm>
0

>  <SCORE.heavy>
26

>  <SCORE.norm>
-0.774036

$$$$
design_18
 OpenBabel05252019093D

 23 25  0  0  0  0  0  0  0  0999 V2000
   38.7835  -48.3829    7.7799 C   0  0  0  0  0  0  0  0  0  0  0  0
   39.6646  -47.2883    8.3262 C   0  0  0  0  0  0  0  0  0  0  0  0
   40.7952  -46.8174    7.8322 N   0  0  0  0  0  0  0  0  0  0  0  0
   41.4180  -45.8577    8.4459 C   0  0  0  0  0  0  0  0  0  0  0  0
   42.6917  -45.2762    7.9349 C   0  0  0  0  0  0  0  0  0  0  0  0
   43.3163  -44.2218    8.5424 C   0  0  0  0  0  0  0  0  0  0  0  0
   44.4985  -43.6907    8.0491 C   0  0  0  0  0  0  0  0  0  0  0  0
   45.0864  -44.2000    6.9348 C   0  0  0  0  0  0  0  0  0  0  0  0
   44.4846  -45.2986    6.2548 C   0  0  0  0  0  0  0  0  0  0  0  0
   45.1015  -45.6847    5.1162 N   0  0  0  0  0  0  0  0  0  0  0  0
   45.7159  -46.0692    3.9823 C   0  0  0  0  0  0  0  0  0  0  0  0
   46.8250  -46.6871    3.7994 O   0  0  0  0  0  0  0  0  0  0  0  0
   45.0836  -45.7775    2.6497 C   0  0  0  0  0  0  0  0  0  0  0  0
   44.1827  -44.7455    2.5945 C   0  0  0  0  0  0  0  0  0  0  0  0
   43.6057  -44.5200    1.3362 C   0  0  0  0  0  0  0  0  0  0  0  0
   43.9068  -45.2697    0.2240 C   0  0  0  0  0  0  0  0  0  0  0  0
   44.8182  -46.2959    0.3271 C   0  0  0  0  0  0  0  0  0  0  0  0
   45.1681  -47.1026   -0.8032 C   0  0  0  0  0  0  0  0  0  0  0  0
   45.4425  -47.7666   -1.6946 N   0  0  0  0  0  0  0  0  0  0  0  0
   45.4151  -46.5509    1.5656 C   0  0  0  0  0  0  0  0  0  0  0  0
   43.3048  -45.7701    6.8157 C   0  0  0  0  0  0  0  0  0  0  0  0
   40.8520  -45.3759    9.6008 C   0  0  0  0  0  0  0  0  0  0  0  0
   39.4489  -46.3432    9.7301 S   0  0  0  0  0  0  0  0  0  0  0  0
  1  2  1  0  0  0  0
  2  3  2  0  0  0  0
  3  4  1  0  0  0  0
  4  5  1  0  0  0  0
  4 22  2  0  0  0  0
  5  6  2  0  0  0  0
  6  7  1  0  0  0  0
  7  8  2  0  0  0  0
  8  9  1  0  0  0  0
  9 10  1  0  0  0  0
  9 21  2  0  0  0  0
 10 11  1  0  0  0  0
 11 12  2  0  0  0  0
 11 13  1  0  0  0  0
 13 14  2  0  0  0  0
 14 15  1  0  0  0  0
 15 16  2  0  0  0  0
 16 17  1  0  0  0  0
 17 18  1  0  0  0  0
 17 20  2  0  0  0  0
 18 19  3  0  0  0  0
 20 13  1  0  0  0  0
 21  5  1  0  0  0  0
 22 23  1  0  0  0  0
 23  2  1  0  0  0  0
M  END
>  <CHROM.1>
176.71025754,133.34751638,22.81579465,43.23119398,-45.92359691,5.30251664
2.15314639,0.46713993,1.27049058

>  <Name>
design_18

>  <RI>
0

>  <Rbt.Current_Directory>
/home/ziqiaoxu/icml18-jtnn/VAEdesign

>  <Rbt.Executable>
rbdock ($Id: //depot/dev/client3/rdock/2013.1/src/exe/rbdock.cxx#4 $)

>  <Rbt.Library>
libRbt.so (2013.1, Build901 2013/11/27)

>  <Rbt.Parameter_File>
/export/apps/rDock/src/rDock_2013.1_src//data/scripts/dock.prm

>  <Rbt.Receptor>
/home/ziqiaoxu/icml18-jtnn/VAEdesign/targets/RdRp-SARS-CoV-2/pocket_docking.prm

>  <SCORE>
-20.7798

>  <SCORE.INTER>
-19.134

>  <SCORE.INTER.CONST>
1

>  <SCORE.INTER.POLAR>
-0.615564

>  <SCORE.INTER.REPUL>
0

>  <SCORE.INTER.ROT>
3

>  <SCORE.INTER.VDW>
-25.441

>  <SCORE.INTER.norm>
-0.831912

>  <SCORE.INTRA>
-1.6458

>  <SCORE.INTRA.DIHEDRAL>
-5.31769

>  <SCORE.INTRA.DIHEDRAL.0>
16.1816

>  <SCORE.INTRA.POLAR>
0

>  <SCORE.INTRA.POLAR.0>
0

>  <SCORE.INTRA.REPUL>
0

>  <SCORE.INTRA.REPUL.0>
0

>  <SCORE.INTRA.VDW>
1.01304

>  <SCORE.INTRA.VDW.0>
-0.775385

>  <SCORE.INTRA.norm>
-0.0715567

>  <SCORE.RESTR>
0

>  <SCORE.RESTR.CAVITY>
0

>  <SCORE.RESTR.norm>
0

>  <SCORE.SYSTEM>
0

>  <SCORE.SYSTEM.CONST>
0

>  <SCORE.SYSTEM.DIHEDRAL>
0

>  <SCORE.SYSTEM.norm>
0

>  <SCORE.heavy>
23

>  <SCORE.norm>
-0.903468

$$$$
design_16
 OpenBabel05252019093D

 24 27  0  0  0  0  0  0  0  0999 V2000
   40.0058  -46.1443    9.1866 C   0  0  0  0  0  0  0  0  0  0  0  0
   41.2713  -45.8265    8.5026 C   0  0  0  0  0  0  0  0  0  0  0  0
   41.5988  -46.3534    7.2584 C   0  0  0  0  0  0  0  0  0  0  0  0
   42.7913  -46.0422    6.6345 C   0  0  0  0  0  0  0  0  0  0  0  0
   43.6663  -45.1933    7.2638 C   0  0  0  0  0  0  0  0  0  0  0  0
   44.9406  -44.8681    6.5839 C   0  0  0  0  0  0  0  0  0  0  0  0
   45.3347  -45.2210    5.3684 N   0  0  0  0  0  0  0  0  0  0  0  0
   46.4884  -44.8486    4.9260 C   0  0  0  0  0  0  0  0  0  0  0  0
   46.9963  -45.2138    3.5444 C   0  0  0  0  0  0  0  0  0  0  0  0
   47.0533  -46.6227    3.4568 N   0  0  0  0  0  0  0  0  0  0  0  0
   48.2886  -47.2154    3.8651 C   0  0  0  0  0  0  0  0  0  0  0  0
   49.0017  -47.5289    2.5858 C   0  0  0  0  0  0  0  0  0  0  0  0
   48.0049  -47.2591    1.5027 C   0  0  0  0  0  0  0  0  0  0  0  0
   46.6783  -47.2252    2.2287 C   0  0  2  0  0  0  0  0  0  0  0  0
   45.5655  -46.6915    1.4809 C   0  0  0  0  0  0  0  0  0  0  0  0
   44.4337  -46.1623    2.0587 C   0  0  0  0  0  0  0  0  0  0  0  0
   43.3815  -45.6572    1.3163 C   0  0  0  0  0  0  0  0  0  0  0  0
   43.4664  -45.6831   -0.0667 C   0  0  0  0  0  0  0  0  0  0  0  0
   44.5853  -46.2063   -0.6252 C   0  0  0  0  0  0  0  0  0  0  0  0
   45.6044  -46.6958    0.1220 N   0  0  0  0  0  0  0  0  0  0  0  0
   47.2717  -44.0850    5.7583 C   0  0  0  0  0  0  0  0  0  0  0  0
   46.2685  -43.9552    7.1482 S   0  0  0  0  0  0  0  0  0  0  0  0
   43.3722  -44.6626    8.4819 C   0  0  0  0  0  0  0  0  0  0  0  0
   42.1717  -44.9806    9.1018 C   0  0  0  0  0  0  0  0  0  0  0  0
  1  2  1  0  0  0  0
  2  3  2  0  0  0  0
  3  4  1  0  0  0  0
  4  5  2  0  0  0  0
  5  6  1  0  0  0  0
  5 23  1  0  0  0  0
  6  7  2  0  0  0  0
  7  8  1  0  0  0  0
  8  9  1  0  0  0  0
  8 21  2  0  0  0  0
  9 10  1  0  0  0  0
 10 11  1  0  0  0  0
 11 12  1  0  0  0  0
 12 13  1  0  0  0  0
 13 14  1  0  0  0  0
 14 15  1  6  0  0  0
 14 10  1  0  0  0  0
 15 16  2  0  0  0  0
 16 17  1  0  0  0  0
 17 18  2  0  0  0  0
 18 19  1  0  0  0  0
 19 20  2  0  0  0  0
 20 15  1  0  0  0  0
 21 22  1  0  0  0  0
 22  6  1  0  0  0  0
 23 24  2  0  0  0  0
 24  2  1  0  0  0  0
M  END
>  <CHROM.1>
5.16784308,-60.06730364,-89.69547216,-35.54735414,45.02868441,-45.76183332
4.61445944,2.07837578,0.07352520,1.33979986

>  <Name>
design_16

>  <RI>
0

>  <Rbt.Current_Directory>
/home/ziqiaoxu/icml18-jtnn/VAEdesign

>  <Rbt.Executable>
rbdock ($Id: //depot/dev/client3/rdock/2013.1/src/exe/rbdock.cxx#4 $)

>  <Rbt.Library>
libRbt.so (2013.1, Build901 2013/11/27)

>  <Rbt.Parameter_File>
/export/apps/rDock/src/rDock_2013.1_src//data/scripts/dock.prm

>  <Rbt.Receptor>
/home/ziqiaoxu/icml18-jtnn/VAEdesign/targets/RdRp-SARS-CoV-2/pocket_docking.prm

>  <SCORE>
-17.1579

>  <SCORE.INTER>
-16.0389

>  <SCORE.INTER.CONST>
1

>  <SCORE.INTER.POLAR>
0

>  <SCORE.INTER.REPUL>
0

>  <SCORE.INTER.ROT>
4

>  <SCORE.INTER.VDW>
-25.4389

>  <SCORE.INTER.norm>
-0.668287

>  <SCORE.INTRA>
-1.11905

>  <SCORE.INTRA.DIHEDRAL>
-0.433237

>  <SCORE.INTRA.DIHEDRAL.0>
2.94683

>  <SCORE.INTRA.POLAR>
0

>  <SCORE.INTRA.POLAR.0>
0

>  <SCORE.INTRA.REPUL>
0

>  <SCORE.INTRA.REPUL.0>
0

>  <SCORE.INTRA.VDW>
-0.902428

>  <SCORE.INTRA.VDW.0>
-1.13088

>  <SCORE.INTRA.norm>
-0.0466269

>  <SCORE.RESTR>
0

>  <SCORE.RESTR.CAVITY>
0

>  <SCORE.RESTR.norm>
0

>  <SCORE.SYSTEM>
0

>  <SCORE.SYSTEM.CONST>
0

>  <SCORE.SYSTEM.DIHEDRAL>
0

>  <SCORE.SYSTEM.norm>
0

>  <SCORE.heavy>
24

>  <SCORE.norm>
-0.714914

$$$$
design_7
 OpenBabel05252019093D

 24 26  0  0  0  0  0  0  0  0999 V2000
   42.1004  -43.8765    1.9521 C   0  0  0  0  0  0  0  0  0  0  0  0
   42.4302  -45.2421    2.0602 O   0  0  0  0  0  0  0  0  0  0  0  0
   43.5036  -45.7249    1.2878 C   0  0  0  0  0  0  0  0  0  0  0  0
   43.3154  -46.0727   -0.0221 C   0  0  0  0  0  0  0  0  0  0  0  0
   44.3594  -46.5450   -0.7818 C   0  0  0  0  0  0  0  0  0  0  0  0
   45.5953  -46.6595   -0.1954 C   0  0  0  0  0  0  0  0  0  0  0  0
   45.7944  -46.3042    1.1481 C   0  0  0  0  0  0  0  0  0  0  0  0
   44.7651  -45.8308    1.9235 C   0  0  0  0  0  0  0  0  0  0  0  0
   44.8507  -45.4477    3.2709 N   0  0  0  0  0  0  0  0  0  0  0  0
   45.9895  -45.4455    4.0885 C   0  0  0  0  0  0  0  0  0  0  0  0
   47.1091  -45.8077    3.6679 O   0  0  0  0  0  0  0  0  0  0  0  0
   45.8855  -44.9943    5.5301 C   0  0  0  0  0  0  0  0  0  0  0  0
   44.7058  -45.3609    6.0935 O   0  0  0  0  0  0  0  0  0  0  0  0
   44.4370  -44.9470    7.3542 C   0  0  0  0  0  0  0  0  0  0  0  0
   43.0936  -45.5527    7.7177 C   0  0  0  0  0  0  0  0  0  0  0  0
   42.3587  -45.2522    8.8042 N   0  0  0  0  0  0  0  0  0  0  0  0
   41.2815  -45.9582    8.7860 O   0  0  0  0  0  0  0  0  0  0  0  0
   41.2419  -46.7344    7.7313 C   0  0  0  0  0  0  0  0  0  0  0  0
   40.1865  -47.6668    7.3753 C   0  0  0  0  0  0  0  0  0  0  0  0
   39.9900  -48.2829    6.1607 C   0  0  0  0  0  0  0  0  0  0  0  0
   38.8555  -49.0955    6.2706 C   0  0  0  0  0  0  0  0  0  0  0  0
   38.4391  -48.9064    7.5755 C   0  0  0  0  0  0  0  0  0  0  0  0
   39.2432  -48.0649    8.1869 O   0  0  0  0  0  0  0  0  0  0  0  0
   42.3925  -46.4808    7.0475 N   0  0  0  0  0  0  0  0  0  0  0  0
  1  2  1  0  0  0  0
  2  3  1  0  0  0  0
  3  4  2  0  0  0  0
  4  5  1  0  0  0  0
  5  6  2  0  0  0  0
  6  7  1  0  0  0  0
  7  8  2  0  0  0  0
  8  9  1  0  0  0  0
  8  3  1  0  0  0  0
  9 10  1  0  0  0  0
 10 11  2  0  0  0  0
 10 12  1  0  0  0  0
 12 13  1  0  0  0  0
 13 14  1  0  0  0  0
 14 15  1  0  0  0  0
 15 16  2  0  0  0  0
 16 17  1  0  0  0  0
 17 18  1  0  0  0  0
 18 19  1  0  0  0  0
 18 24  2  0  0  0  0
 19 20  2  0  0  0  0
 20 21  1  0  0  0  0
 21 22  2  0  0  0  0
 22 23  1  0  0  0  0
 23 19  1  0  0  0  0
 24 15  1  0  0  0  0
M  END
>  <CHROM.1>
-82.65741657,-178.79978172,35.80216798,-175.68216612,-177.85593167,-170.08177697
165.67518924,43.00497101,-46.22375649,4.75728505,0.90945229,-0.44146991,-1.66091611

>  <Name>
design_7

>  <RI>
0

>  <Rbt.Current_Directory>
/home/ziqiaoxu/icml18-jtnn/VAEdesign

>  <Rbt.Executable>
rbdock ($Id: //depot/dev/client3/rdock/2013.1/src/exe/rbdock.cxx#4 $)

>  <Rbt.Library>
libRbt.so (2013.1, Build901 2013/11/27)

>  <Rbt.Parameter_File>
/export/apps/rDock/src/rDock_2013.1_src//data/scripts/dock.prm

>  <Rbt.Receptor>
/home/ziqiaoxu/icml18-jtnn/VAEdesign/targets/RdRp-SARS-CoV-2/pocket_docking.prm

>  <SCORE>
-14.7303

>  <SCORE.INTER>
-12.9984

>  <SCORE.INTER.CONST>
1

>  <SCORE.INTER.POLAR>
0

>  <SCORE.INTER.REPUL>
0.00806749

>  <SCORE.INTER.ROT>
7

>  <SCORE.INTER.VDW>
-25.4387

>  <SCORE.INTER.norm>
-0.541599

>  <SCORE.INTRA>
-1.73192

>  <SCORE.INTRA.DIHEDRAL>
5.40638

>  <SCORE.INTRA.DIHEDRAL.0>
2.80449

>  <SCORE.INTRA.POLAR>
0.0128743

>  <SCORE.INTRA.POLAR.0>
-0.0199101

>  <SCORE.INTRA.REPUL>
0

>  <SCORE.INTRA.REPUL.0>
0

>  <SCORE.INTRA.VDW>
-4.47888

>  <SCORE.INTRA.VDW.0>
2.58024

>  <SCORE.INTRA.norm>
-0.0721633

>  <SCORE.RESTR>
0

>  <SCORE.RESTR.CAVITY>
0

>  <SCORE.RESTR.norm>
0

>  <SCORE.SYSTEM>
0

>  <SCORE.SYSTEM.CONST>
0

>  <SCORE.SYSTEM.DIHEDRAL>
0

>  <SCORE.SYSTEM.norm>
0

>  <SCORE.heavy>
24

>  <SCORE.norm>
-0.613762

$$$$
design_8
 OpenBabel05252019093D

 25 27  0  0  0  0  0  0  0  0999 V2000
   39.5786  -46.6284    9.9782 N   0  0  0  0  0  0  0  0  0  0  0  0
   39.2564  -46.7572    8.6008 C   0  0  0  0  0  0  0  0  0  0  0  0
   38.0613  -47.0153    8.3427 O   0  0  0  0  0  0  0  0  0  0  0  0
   40.2853  -46.5933    7.5349 C   0  0  0  0  0  0  0  0  0  0  0  0
   39.9756  -46.9206    6.2393 C   0  0  0  0  0  0  0  0  0  0  0  0
   41.4167  -46.5788    5.3987 S   0  0  0  0  0  0  0  0  0  0  0  0
   42.3711  -46.0328    6.7011 C   0  0  0  0  0  0  0  0  0  0  0  0
   43.7825  -45.5582    6.6910 C   0  0  0  0  0  0  0  0  0  0  0  0
   44.1849  -45.1029    7.7772 O   0  0  0  0  0  0  0  0  0  0  0  0
   44.5124  -45.6536    5.5263 N   0  0  0  0  0  0  0  0  0  0  0  0
   45.8593  -45.2628    5.2913 C   0  0  0  0  0  0  0  0  0  0  0  0
   46.4813  -44.3342    6.0689 C   0  0  0  0  0  0  0  0  0  0  0  0
   47.8199  -43.9753    5.8213 C   0  0  0  0  0  0  0  0  0  0  0  0
   48.4837  -44.5797    4.7811 C   0  0  0  0  0  0  0  0  0  0  0  0
   47.8792  -45.5186    3.9821 C   0  0  0  0  0  0  0  0  0  0  0  0
   48.5731  -46.1241    2.9252 O   0  0  0  0  0  0  0  0  0  0  0  0
   47.8459  -46.8731    1.9901 C   0  0  0  0  0  0  0  0  0  0  0  0
   46.9356  -46.0372    1.1806 C   0  0  0  0  0  0  0  0  0  0  0  0
   47.1385  -44.8152    1.0432 O   0  0  0  0  0  0  0  0  0  0  0  0
   45.8258  -46.6392    0.5594 N   0  0  0  0  0  0  0  0  0  0  0  0
   44.9256  -45.8428   -0.2343 C   0  0  0  0  0  0  0  0  0  0  0  0
   43.5827  -46.4112   -0.5342 C   0  0  0  0  0  0  0  0  0  0  0  0
   43.7211  -45.2620    0.4347 C   0  0  0  0  0  0  0  0  0  0  0  0
   46.5742  -45.8606    4.2331 C   0  0  0  0  0  0  0  0  0  0  0  0
   41.5217  -46.1351    7.7732 C   0  0  0  0  0  0  0  0  0  0  0  0
  1  2  1  0  0  0  0
  2  3  2  0  0  0  0
  2  4  1  0  0  0  0
  4  5  2  0  0  0  0
  5  6  1  0  0  0  0
  6  7  1  0  0  0  0
  7  8  1  0  0  0  0
  7 25  2  0  0  0  0
  8  9  2  0  0  0  0
  8 10  1  0  0  0  0
 10 11  1  0  0  0  0
 11 12  2  0  0  0  0
 12 13  1  0  0  0  0
 13 14  2  0  0  0  0
 14 15  1  0  0  0  0
 15 16  1  0  0  0  0
 15 24  2  0  0  0  0
 16 17  1  0  0  0  0
 17 18  1  0  0  0  0
 18 19  2  0  0  0  0
 18 20  1  0  0  0  0
 20 21  1  0  0  0  0
 21 22  1  0  0  0  0
 22 23  1  0  0  0  0
 23 21  1  0  0  0  0
 24 11  1  0  0  0  0
 25  4  1  0  0  0  0
M  END
>  <CHROM.1>
170.33570913,173.69464099,-22.46300190,-167.84886958,66.86990117,22.42009283
-162.52194639,44.10620496,-45.90927238,4.74204184,-2.44008587,-0.23281788
-1.69366935

>  <Name>
design_8

>  <RI>
0

>  <Rbt.Current_Directory>
/home/ziqiaoxu/icml18-jtnn/VAEdesign

>  <Rbt.Executable>
rbdock ($Id: //depot/dev/client3/rdock/2013.1/src/exe/rbdock.cxx#4 $)

>  <Rbt.Library>
libRbt.so (2013.1, Build901 2013/11/27)

>  <Rbt.Parameter_File>
/export/apps/rDock/src/rDock_2013.1_src//data/scripts/dock.prm

>  <Rbt.Receptor>
/home/ziqiaoxu/icml18-jtnn/VAEdesign/targets/RdRp-SARS-CoV-2/pocket_docking.prm

>  <SCORE>
-22.6345

>  <SCORE.INTER>
-23.4346

>  <SCORE.INTER.CONST>
1

>  <SCORE.INTER.POLAR>
-3.05844

>  <SCORE.INTER.REPUL>
0

>  <SCORE.INTER.ROT>
7

>  <SCORE.INTER.VDW>
-25.4359

>  <SCORE.INTER.norm>
-0.937384

>  <SCORE.INTRA>
0.800053

>  <SCORE.INTRA.DIHEDRAL>
2.44756

>  <SCORE.INTRA.DIHEDRAL.0>
2.92102

>  <SCORE.INTRA.POLAR>
0

>  <SCORE.INTRA.POLAR.0>
0

>  <SCORE.INTRA.REPUL>
0

>  <SCORE.INTRA.REPUL.0>
0

>  <SCORE.INTRA.VDW>
-0.423729

>  <SCORE.INTRA.VDW.0>
0.100956

>  <SCORE.INTRA.norm>
0.0320021

>  <SCORE.RESTR>
0

>  <SCORE.RESTR.CAVITY>
0

>  <SCORE.RESTR.norm>
0

>  <SCORE.SYSTEM>
0

>  <SCORE.SYSTEM.CONST>
0

>  <SCORE.SYSTEM.DIHEDRAL>
0

>  <SCORE.SYSTEM.norm>
0

>  <SCORE.heavy>
25

>  <SCORE.norm>
-0.905381

$$$$
design_13
 OpenBabel05252019093D

 24 25  0  0  0  0  0  0  0  0999 V2000
   38.5239  -46.6874    9.2047 C   0  0  0  0  0  0  0  0  0  0  0  0
   39.8881  -46.1591    8.9272 C   0  0  0  0  0  0  0  0  0  0  0  0
   40.5403  -46.6121    7.8002 C   0  0  0  0  0  0  0  0  0  0  0  0
   41.7972  -46.1533    7.5051 C   0  0  0  0  0  0  0  0  0  0  0  0
   42.4369  -45.2332    8.3227 C   0  0  0  0  0  0  0  0  0  0  0  0
   44.0393  -44.7230    7.8410 S   0  0  0  0  0  0  0  0  0  0  0  0
   43.9231  -43.2937    7.3674 O   0  0  0  0  0  0  0  0  0  0  0  0
   44.9653  -44.8300    9.0242 O   0  0  0  0  0  0  0  0  0  0  0  0
   44.6722  -45.7344    6.5947 N   0  0  0  0  0  0  0  0  0  0  0  0
   45.4989  -44.9116    5.7567 C   0  0  0  0  0  0  0  0  0  0  0  0
   45.6096  -45.4633    4.3509 C   0  0  0  0  0  0  0  0  0  0  0  0
   46.5121  -46.2863    4.1890 O   0  0  0  0  0  0  0  0  0  0  0  0
   44.7436  -45.0555    3.3308 N   0  0  0  0  0  0  0  0  0  0  0  0
   44.7468  -45.4883    1.9951 C   0  0  0  0  0  0  0  0  0  0  0  0
   45.7189  -46.2865    1.4419 C   0  0  0  0  0  0  0  0  0  0  0  0
   45.6895  -46.6513    0.0815 C   0  0  0  0  0  0  0  0  0  0  0  0
   44.6597  -46.1944   -0.7092 C   0  0  0  0  0  0  0  0  0  0  0  0
   43.6720  -45.3947   -0.1851 C   0  0  0  0  0  0  0  0  0  0  0  0
   43.7105  -45.0400    1.1638 C   0  0  0  0  0  0  0  0  0  0  0  0
   42.6874  -44.2508    1.7233 N   0  0  0  0  0  0  0  0  0  0  0  0
   42.5395  -42.8211    1.4468 C   0  0  0  0  0  0  0  0  0  0  0  0
   41.7341  -44.8821    2.6157 C   0  0  0  0  0  0  0  0  0  0  0  0
   41.8004  -44.7765    9.4434 C   0  0  0  0  0  0  0  0  0  0  0  0
   40.5218  -45.2566    9.7246 C   0  0  0  0  0  0  0  0  0  0  0  0
  1  2  1  0  0  0  0
  2  3  2  0  0  0  0
  3  4  1  0  0  0  0
  4  5  2  0  0  0  0
  5  6  1  0  0  0  0
  5 23  1  0  0  0  0
  6  7  2  0  0  0  0
  6  8  2  0  0  0  0
  6  9  1  0  0  0  0
  9 10  1  0  0  0  0
 10 11  1  0  0  0  0
 11 12  2  0  0  0  0
 11 13  1  0  0  0  0
 13 14  1  0  0  0  0
 14 15  2  0  0  0  0
 15 16  1  0  0  0  0
 16 17  2  0  0  0  0
 17 18  1  0  0  0  0
 18 19  2  0  0  0  0
 19 20  1  0  0  0  0
 19 14  1  0  0  0  0
 20 21  1  0  0  0  0
 20 22  1  0  0  0  0
 23 24  2  0  0  0  0
 24  2  1  0  0  0  0
M  END
>  <CHROM.1>
108.82533327,147.12236098,-154.60972030,-87.16823668,-7.73048578,108.79024091
43.42080680,-45.27834647,5.14961933,1.92340464,0.05512015,1.55636750

>  <Name>
design_13

>  <RI>
0

>  <Rbt.Current_Directory>
/home/ziqiaoxu/icml18-jtnn/VAEdesign

>  <Rbt.Executable>
rbdock ($Id: //depot/dev/client3/rdock/2013.1/src/exe/rbdock.cxx#4 $)

>  <Rbt.Library>
libRbt.so (2013.1, Build901 2013/11/27)

>  <Rbt.Parameter_File>
/export/apps/rDock/src/rDock_2013.1_src//data/scripts/dock.prm

>  <Rbt.Receptor>
/home/ziqiaoxu/icml18-jtnn/VAEdesign/targets/RdRp-SARS-CoV-2/pocket_docking.prm

>  <SCORE>
-15.1564

>  <SCORE.INTER>
-16.9117

>  <SCORE.INTER.CONST>
1

>  <SCORE.INTER.POLAR>
-0.880223

>  <SCORE.INTER.REPUL>
0.0220809

>  <SCORE.INTER.ROT>
6

>  <SCORE.INTER.VDW>
-25.4293

>  <SCORE.INTER.norm>
-0.704654

>  <SCORE.INTRA>
1.75532

>  <SCORE.INTRA.DIHEDRAL>
2.43242

>  <SCORE.INTRA.DIHEDRAL.0>
14.1

>  <SCORE.INTRA.POLAR>
0.0845601

>  <SCORE.INTRA.POLAR.0>
-0.0845601

>  <SCORE.INTRA.REPUL>
0

>  <SCORE.INTRA.REPUL.0>
0

>  <SCORE.INTRA.VDW>
0.251602

>  <SCORE.INTRA.VDW.0>
-1.50592

>  <SCORE.INTRA.norm>
0.0731382

>  <SCORE.RESTR>
0

>  <SCORE.RESTR.CAVITY>
0

>  <SCORE.RESTR.norm>
0

>  <SCORE.SYSTEM>
0

>  <SCORE.SYSTEM.CONST>
0

>  <SCORE.SYSTEM.DIHEDRAL>
0

>  <SCORE.SYSTEM.norm>
0

>  <SCORE.heavy>
24

>  <SCORE.norm>
-0.631516

$$$$
design_16
 OpenBabel05252019093D

 23 24  0  0  0  0  0  0  0  0999 V2000
   40.9743  -44.0380   10.7923 C   0  0  0  0  0  0  0  0  0  0  0  0
   40.9369  -45.2490    9.8853 C   0  0  0  0  0  0  0  0  0  0  0  0
   41.7955  -45.3726    8.8302 C   0  0  0  0  0  0  0  0  0  0  0  0
   41.5920  -46.2806    7.7639 C   0  0  0  0  0  0  0  0  0  0  0  0
   40.4713  -47.0964    7.8112 C   0  0  0  0  0  0  0  0  0  0  0  0
   39.7951  -47.7583    6.4402 S   0  0  0  0  0  0  0  0  0  0  0  0
   39.5719  -49.3385    6.8617 O   0  0  0  0  0  0  0  0  0  0  0  0
   38.2699  -47.4520    6.3131 O   0  0  0  0  0  0  0  0  0  0  0  0
   40.4437  -47.8881    4.9472 N   0  0  0  0  0  0  0  0  0  0  0  0
   41.2453  -46.7281    4.7145 C   0  0  0  0  0  0  0  0  0  0  0  0
   40.8143  -45.6594    3.9365 C   0  0  0  0  0  0  0  0  0  0  0  0
   40.3950  -44.6620    3.1439 N   0  0  0  0  0  0  0  0  0  0  0  0
   41.4947  -44.2075    2.2283 C   0  0  0  0  0  0  0  0  0  0  0  0
   42.5177  -44.8655    2.2085 O   0  0  0  0  0  0  0  0  0  0  0  0
   41.2845  -43.0298    1.5150 N   0  0  0  0  0  0  0  0  0  0  0  0
   42.4550  -42.3459    0.9883 C   0  0  0  0  0  0  0  0  0  0  0  0
   42.4411  -41.0174    0.7869 C   0  0  0  0  0  0  0  0  0  0  0  0
   43.5659  -40.3960    0.1607 C   0  0  0  0  0  0  0  0  0  0  0  0
   44.6156  -41.1412   -0.2195 C   0  0  0  0  0  0  0  0  0  0  0  0
   44.6044  -42.4953   -0.0034 C   0  0  0  0  0  0  0  0  0  0  0  0
   43.4910  -43.0982    0.6088 C   0  0  0  0  0  0  0  0  0  0  0  0
   39.6061  -46.9920    8.9533 C   0  0  0  0  0  0  0  0  0  0  0  0
   39.8200  -46.0960    9.9547 C   0  0  0  0  0  0  0  0  0  0  0  0
  1  2  1  0  0  0  0
  2  3  2  0  0  0  0
  3  4  1  0  0  0  0
  4  5  2  0  0  0  0
  5  6  1  0  0  0  0
  5 22  1  0  0  0  0
  6  7  2  0  0  0  0
  6  8  2  0  0  0  0
  6  9  1  0  0  0  0
  9 10  1  0  0  0  0
 10 11  1  0  0  0  0
 11 12  1  0  0  0  0
 12 13  1  0  0  0  0
 13 14  2  0  0  0  0
 13 15  1  0  0  0  0
 15 16  1  0  0  0  0
 16 17  2  0  0  0  0
 17 18  1  0  0  0  0
 18 19  2  0  0  0  0
 19 20  1  0  0  0  0
 20 21  2  0  0  0  0
 21 16  1  0  0  0  0
 22 23  2  0  0  0  0
 23  2  1  0  0  0  0
M  END
>  <CHROM.1>
132.90233518,-35.32217909,-101.61930615,-61.29027327,-75.62691406,-152.82679907
41.25189149,-45.15484469,4.83013405,-2.33104877,-1.08461667,-1.71775388

>  <Name>
design_16

>  <RI>
0

>  <Rbt.Current_Directory>
/home/ziqiaoxu/icml18-jtnn/VAEdesign

>  <Rbt.Executable>
rbdock ($Id: //depot/dev/client3/rdock/2013.1/src/exe/rbdock.cxx#4 $)

>  <Rbt.Library>
libRbt.so (2013.1, Build901 2013/11/27)

>  <Rbt.Parameter_File>
/export/apps/rDock/src/rDock_2013.1_src//data/scripts/dock.prm

>  <Rbt.Receptor>
/home/ziqiaoxu/icml18-jtnn/VAEdesign/targets/RdRp-SARS-CoV-2/pocket_docking.prm

>  <SCORE>
-21.3664

>  <SCORE.INTER>
-20.7713

>  <SCORE.INTER.CONST>
1

>  <SCORE.INTER.POLAR>
-2.02032

>  <SCORE.INTER.REPUL>
0.0253174

>  <SCORE.INTER.ROT>
6

>  <SCORE.INTER.VDW>
-25.4287

>  <SCORE.INTER.norm>
-0.903098

>  <SCORE.INTRA>
-0.595188

>  <SCORE.INTRA.DIHEDRAL>
-3.14671

>  <SCORE.INTRA.DIHEDRAL.0>
11.6894

>  <SCORE.INTRA.POLAR>
0

>  <SCORE.INTRA.POLAR.0>
0

>  <SCORE.INTRA.REPUL>
0

>  <SCORE.INTRA.REPUL.0>
0

>  <SCORE.INTRA.VDW>
0.978167

>  <SCORE.INTRA.VDW.0>
-1.13272

>  <SCORE.INTRA.norm>
-0.0258777

>  <SCORE.RESTR>
0

>  <SCORE.RESTR.CAVITY>
0

>  <SCORE.RESTR.norm>
0

>  <SCORE.SYSTEM>
0

>  <SCORE.SYSTEM.CONST>
0

>  <SCORE.SYSTEM.DIHEDRAL>
0

>  <SCORE.SYSTEM.norm>
0

>  <SCORE.heavy>
23

>  <SCORE.norm>
-0.928976

$$$$
design_12
 OpenBabel05252019093D

 26 29  0  0  0  0  0  0  0  0999 V2000
   38.5153  -48.9703    6.4358 C   0  0  0  0  0  0  0  0  0  0  0  0
   38.9027  -48.0138    7.4985 C   0  0  0  0  0  0  0  0  0  0  0  0
   38.1454  -47.6440    8.5317 N   0  0  0  0  0  0  0  0  0  0  0  0
   38.7874  -46.7788    9.2979 N   0  0  0  0  0  0  0  0  0  0  0  0
   39.9988  -46.5728    8.7561 C   0  0  0  0  0  0  0  0  0  0  0  0
   41.0406  -45.6917    9.2839 C   0  0  0  0  0  0  0  0  0  0  0  0
   40.9016  -45.0655   10.5026 C   0  0  0  0  0  0  0  0  0  0  0  0
   41.8923  -44.2341   10.9706 C   0  0  0  0  0  0  0  0  0  0  0  0
   43.0548  -44.0086   10.2235 C   0  0  0  0  0  0  0  0  0  0  0  0
   43.2142  -44.6209    9.0098 C   0  0  0  0  0  0  0  0  0  0  0  0
   44.4325  -44.3890    8.2020 C   0  0  0  0  0  0  0  0  0  0  0  0
   44.3778  -44.8539    6.8636 N   0  0  0  0  0  0  0  0  0  0  0  0
   45.5804  -44.9275    6.0978 C   0  0  0  0  0  0  0  0  0  0  0  0
   46.6920  -44.6049    6.5313 O   0  0  0  0  0  0  0  0  0  0  0  0
   45.4568  -45.4169    4.7237 C   0  0  0  0  0  0  0  0  0  0  0  0
   46.5019  -46.1593    4.2065 C   0  0  0  0  0  0  0  0  0  0  0  0
   46.3715  -46.6280    2.9099 C   0  0  0  0  0  0  0  0  0  0  0  0
   45.2500  -46.3724    2.1535 C   0  0  0  0  0  0  0  0  0  0  0  0
   44.8510  -46.6842    0.9103 N   0  0  0  0  0  0  0  0  0  0  0  0
   43.6267  -46.1457    0.7144 C   0  0  0  0  0  0  0  0  0  0  0  0
   42.9662  -46.2567   -0.3637 O   0  0  0  0  0  0  0  0  0  0  0  0
   43.2755  -45.5224    1.7931 O   0  0  0  0  0  0  0  0  0  0  0  0
   44.2341  -45.6274    2.7130 C   0  0  0  0  0  0  0  0  0  0  0  0
   44.3227  -45.1414    3.9998 C   0  0  0  0  0  0  0  0  0  0  0  0
   42.2014  -45.4470    8.5724 C   0  0  0  0  0  0  0  0  0  0  0  0
   40.0596  -47.3247    7.6665 N   0  0  0  0  0  0  0  0  0  0  0  0
  1  2  1  0  0  0  0
  2  3  2  0  0  0  0
  3  4  1  0  0  0  0
  4  5  1  0  0  0  0
  5  6  1  0  0  0  0
  5 26  2  0  0  0  0
  6  7  2  0  0  0  0
  7  8  1  0  0  0  0
  8  9  2  0  0  0  0
  9 10  1  0  0  0  0
 10 11  1  0  0  0  0
 10 25  2  0  0  0  0
 11 12  1  0  0  0  0
 12 13  1  0  0  0  0
 13 14  2  0  0  0  0
 13 15  1  0  0  0  0
 15 16  2  0  0  0  0
 16 17  1  0  0  0  0
 17 18  2  0  0  0  0
 18 19  1  0  0  0  0
 19 20  1  0  0  0  0
 20 21  2  0  0  0  0
 20 22  1  0  0  0  0
 22 23  1  0  0  0  0
 23 24  2  0  0  0  0
 23 18  1  0  0  0  0
 24 15  1  0  0  0  0
 25  6  1  0  0  0  0
 26  2  1  0  0  0  0
M  END
>  <CHROM.1>
6.27317673,-168.01246329,-167.13980247,-146.06568089,42.85637882,-45.90390518
6.02009517,2.18748332,0.42204977,1.31018178

>  <Name>
design_12

>  <RI>
0

>  <Rbt.Current_Directory>
/home/ziqiaoxu/icml18-jtnn/VAEdesign

>  <Rbt.Executable>
rbdock ($Id: //depot/dev/client3/rdock/2013.1/src/exe/rbdock.cxx#4 $)

>  <Rbt.Library>
libRbt.so (2013.1, Build901 2013/11/27)

>  <Rbt.Parameter_File>
/export/apps/rDock/src/rDock_2013.1_src//data/scripts/dock.prm

>  <Rbt.Receptor>
/home/ziqiaoxu/icml18-jtnn/VAEdesign/targets/RdRp-SARS-CoV-2/pocket_docking.prm

>  <SCORE>
-23.1677

>  <SCORE.INTER>
-20.1659

>  <SCORE.INTER.CONST>
1

>  <SCORE.INTER.POLAR>
-1.21688

>  <SCORE.INTER.REPUL>
0

>  <SCORE.INTER.ROT>
4

>  <SCORE.INTER.VDW>
-25.4285

>  <SCORE.INTER.norm>
-0.775613

>  <SCORE.INTRA>
-3.00175

>  <SCORE.INTRA.DIHEDRAL>
-8.52193

>  <SCORE.INTRA.DIHEDRAL.0>
14.5475

>  <SCORE.INTRA.POLAR>
0

>  <SCORE.INTRA.POLAR.0>
0

>  <SCORE.INTRA.REPUL>
0

>  <SCORE.INTRA.REPUL.0>
0

>  <SCORE.INTRA.VDW>
1.25921

>  <SCORE.INTRA.VDW.0>
-1.90488

>  <SCORE.INTRA.norm>
-0.115452

>  <SCORE.RESTR>
0

>  <SCORE.RESTR.CAVITY>
0

>  <SCORE.RESTR.norm>
0

>  <SCORE.SYSTEM>
0

>  <SCORE.SYSTEM.CONST>
0

>  <SCORE.SYSTEM.DIHEDRAL>
0

>  <SCORE.SYSTEM.norm>
0

>  <SCORE.heavy>
26

>  <SCORE.norm>
-0.891065

$$$$
design_11
 OpenBabel05252019093D

 24 26  0  0  0  0  0  0  0  0999 V2000
   44.8656  -44.8923    5.9054 C   0  0  0  0  0  0  0  0  0  0  0  0
   43.5188  -45.3563    6.3870 C   0  0  0  0  0  0  0  0  0  0  0  0
   43.2186  -45.4071    7.7235 C   0  0  0  0  0  0  0  0  0  0  0  0
   42.0038  -45.8646    8.1959 C   0  0  0  0  0  0  0  0  0  0  0  0
   41.0220  -46.2993    7.3065 C   0  0  0  0  0  0  0  0  0  0  0  0
   39.7316  -46.8203    7.7752 C   0  0  0  0  0  0  0  0  0  0  0  0
   39.2960  -45.9931    9.0459 C   0  0  0  0  0  0  0  0  0  0  0  0
   38.7239  -46.7361    9.9329 O   0  0  0  0  0  0  0  0  0  0  0  0
   39.5415  -44.7331    9.0650 N   0  0  0  0  0  0  0  0  0  0  0  0
   39.8074  -43.3680    9.0858 C   0  0  0  0  0  0  0  0  0  0  0  0
   40.5916  -42.9692    7.9636 C   0  0  0  0  0  0  0  0  0  0  0  0
   40.9101  -41.6640    7.8045 C   0  0  0  0  0  0  0  0  0  0  0  0
   40.4801  -40.7366    8.7232 C   0  0  0  0  0  0  0  0  0  0  0  0
   40.9134  -39.0317    8.4180 S   0  0  0  0  0  0  0  0  0  0  0  0
   40.4590  -38.6406    6.7476 C   0  0  0  0  0  0  0  0  0  0  0  0
   39.9706  -37.4130    6.4291 C   0  0  0  0  0  0  0  0  0  0  0  0
   39.5652  -37.1223    5.1550 C   0  0  0  0  0  0  0  0  0  0  0  0
   39.6624  -38.1203    4.1748 C   0  0  0  0  0  0  0  0  0  0  0  0
   40.1622  -39.3418    4.5450 C   0  0  0  0  0  0  0  0  0  0  0  0
   40.5516  -39.5969    5.8033 N   0  0  0  0  0  0  0  0  0  0  0  0
   39.7335  -41.0869    9.8053 C   0  0  0  0  0  0  0  0  0  0  0  0
   39.3976  -42.4537    9.9694 C   0  0  0  0  0  0  0  0  0  0  0  0
   41.3831  -46.2207    5.9721 C   0  0  0  0  0  0  0  0  0  0  0  0
   42.5722  -45.7711    5.5348 N   0  0  0  0  0  0  0  0  0  0  0  0
  1  2  1  0  0  0  0
  2  3  2  0  0  0  0
  3  4  1  0  0  0  0
  4  5  2  0  0  0  0
  5  6  1  0  0  0  0
  5 23  1  0  0  0  0
  6  7  1  0  0  0  0
  7  8  2  0  0  0  0
  7  9  1  0  0  0  0
  9 10  1  0  0  0  0
 10 11  2  0  0  0  0
 11 12  1  0  0  0  0
 12 13  2  0  0  0  0
 13 14  1  0  0  0  0
 13 21  1  0  0  0  0
 14 15  1  0  0  0  0
 15 16  2  0  0  0  0
 16 17  1  0  0  0  0
 17 18  2  0  0  0  0
 18 19  1  0  0  0  0
 19 20  2  0  0  0  0
 20 15  1  0  0  0  0
 21 22  2  0  0  0  0
 22 10  1  0  0  0  0
 23 24  2  0  0  0  0
 24  2  1  0  0  0  0
M  END
>  <CHROM.1>
36.67066810,-142.18856353,-174.36650974,50.33369468,143.54777192,40.76196944
-42.58493108,7.46227110,-1.36999601,0.86835582,-0.34037979

>  <Name>
design_11

>  <RI>
0

>  <Rbt.Current_Directory>
/home/ziqiaoxu/icml18-jtnn/VAEdesign

>  <Rbt.Executable>
rbdock ($Id: //depot/dev/client3/rdock/2013.1/src/exe/rbdock.cxx#4 $)

>  <Rbt.Library>
libRbt.so (2013.1, Build901 2013/11/27)

>  <Rbt.Parameter_File>
/export/apps/rDock/src/rDock_2013.1_src//data/scripts/dock.prm

>  <Rbt.Receptor>
/home/ziqiaoxu/icml18-jtnn/VAEdesign/targets/RdRp-SARS-CoV-2/pocket_docking.prm

>  <SCORE>
-19.451

>  <SCORE.INTER>
-18.4679

>  <SCORE.INTER.CONST>
1

>  <SCORE.INTER.POLAR>
-1.0198

>  <SCORE.INTER.REPUL>
0.00478873

>  <SCORE.INTER.ROT>
5

>  <SCORE.INTER.VDW>
-25.4245

>  <SCORE.INTER.norm>
-0.769495

>  <SCORE.INTRA>
-0.983142

>  <SCORE.INTRA.DIHEDRAL>
-0.764686

>  <SCORE.INTRA.DIHEDRAL.0>
7.32245

>  <SCORE.INTRA.POLAR>
0

>  <SCORE.INTRA.POLAR.0>
0

>  <SCORE.INTRA.REPUL>
0

>  <SCORE.INTRA.REPUL.0>
0

>  <SCORE.INTRA.VDW>
-0.600799

>  <SCORE.INTRA.VDW.0>
-0.231948

>  <SCORE.INTRA.norm>
-0.0409642

>  <SCORE.RESTR>
0

>  <SCORE.RESTR.CAVITY>
0

>  <SCORE.RESTR.norm>
0

>  <SCORE.SYSTEM>
0

>  <SCORE.SYSTEM.CONST>
0

>  <SCORE.SYSTEM.DIHEDRAL>
0

>  <SCORE.SYSTEM.norm>
0

>  <SCORE.heavy>
24

>  <SCORE.norm>
-0.81046

$$$$
design_6
 OpenBabel05252019093D

 23 24  0  0  0  0  0  0  0  0999 V2000
   42.2968  -41.6395    1.5267 C   0  0  0  0  0  0  0  0  0  0  0  0
   42.7473  -43.0832    1.9920 C   0  0  0  0  0  0  0  0  0  0  0  0
   41.3897  -43.7885    2.0585 C   0  0  0  0  0  0  0  0  0  0  0  0
   43.6438  -43.6311    0.9842 C   0  0  0  0  0  0  0  0  0  0  0  0
   44.2194  -45.0102    1.0450 C   0  0  0  0  0  0  0  0  0  0  0  0
   44.6768  -45.3976    2.3758 C   0  0  0  0  0  0  0  0  0  0  0  0
   43.8268  -45.6395    3.4637 N   0  0  0  0  0  0  0  0  0  0  0  0
   43.8724  -45.3567    4.8252 C   0  0  0  0  0  0  0  0  0  0  0  0
   44.8348  -44.7791    5.3802 O   0  0  0  0  0  0  0  0  0  0  0  0
   42.7888  -45.7117    5.7487 C   0  0  0  0  0  0  0  0  0  0  0  0
   42.8890  -45.4307    7.0865 C   0  0  0  0  0  0  0  0  0  0  0  0
   41.8390  -45.7699    7.9493 C   0  0  0  0  0  0  0  0  0  0  0  0
   40.7163  -46.3820    7.4467 C   0  0  0  0  0  0  0  0  0  0  0  0
   39.4152  -46.7997    8.5323 S   0  0  0  0  0  0  0  0  0  0  0  0
   39.8896  -46.3842   10.1511 N   0  0  0  0  0  0  0  0  0  0  0  0
   38.1571  -46.0430    8.1708 O   0  0  0  0  0  0  0  0  0  0  0  0
   39.1167  -48.2515    8.5036 O   0  0  0  0  0  0  0  0  0  0  0  0
   40.6142  -46.6626    6.1152 C   0  0  0  0  0  0  0  0  0  0  0  0
   41.6670  -46.3171    5.2801 C   0  0  0  0  0  0  0  0  0  0  0  0
   45.4016  -45.0902    0.0297 C   0  0  0  0  0  0  0  0  0  0  0  0
   45.4059  -46.4932   -0.4896 C   0  0  0  0  0  0  0  0  0  0  0  0
   43.9461  -46.8404   -0.5564 C   0  0  0  0  0  0  0  0  0  0  0  0
   43.2237  -45.8919    0.3508 C   0  0  0  0  0  0  0  0  0  0  0  0
  1  2  1  0  0  0  0
  2  3  1  0  0  0  0
  2  4  1  0  0  0  0
  4  5  1  0  0  0  0
  5  6  1  0  0  0  0
  5 20  1  0  0  0  0
  6  7  1  0  0  0  0
  7  8  1  0  0  0  0
  8  9  2  0  0  0  0
  8 10  1  0  0  0  0
 10 11  2  0  0  0  0
 11 12  1  0  0  0  0
 12 13  2  0  0  0  0
 13 14  1  0  0  0  0
 13 18  1  0  0  0  0
 14 15  1  0  0  0  0
 14 16  2  0  0  0  0
 14 17  2  0  0  0  0
 18 19  2  0  0  0  0
 19 10  1  0  0  0  0
 20 21  1  0  0  0  0
 21 22  1  0  0  0  0
 22 23  1  0  0  0  0
 23  5  1  0  0  0  0
M  END
>  <CHROM.1>
-176.76347291,-42.39518395,69.13371316,-140.38289992,178.96532088,-2.77613202
-88.65471666,42.24534857,-45.57050900,4.52778125,0.88972104,0.71282939,-0.85937594

>  <Name>
design_6

>  <RI>
0

>  <Rbt.Current_Directory>
/home/ziqiaoxu/icml18-jtnn/VAEdesign

>  <Rbt.Executable>
rbdock ($Id: //depot/dev/client3/rdock/2013.1/src/exe/rbdock.cxx#4 $)

>  <Rbt.Library>
libRbt.so (2013.1, Build901 2013/11/27)

>  <Rbt.Parameter_File>
/export/apps/rDock/src/rDock_2013.1_src//data/scripts/dock.prm

>  <Rbt.Receptor>
/home/ziqiaoxu/icml18-jtnn/VAEdesign/targets/RdRp-SARS-CoV-2/pocket_docking.prm

>  <SCORE>
-20.1279

>  <SCORE.INTER>
-20.8245

>  <SCORE.INTER.CONST>
1

>  <SCORE.INTER.POLAR>
-2.29427

>  <SCORE.INTER.REPUL>
0

>  <SCORE.INTER.ROT>
7

>  <SCORE.INTER.VDW>
-25.424

>  <SCORE.INTER.norm>
-0.905415

>  <SCORE.INTRA>
0.696636

>  <SCORE.INTRA.DIHEDRAL>
0.374196

>  <SCORE.INTRA.DIHEDRAL.0>
5.32479

>  <SCORE.INTRA.POLAR>
0

>  <SCORE.INTRA.POLAR.0>
0

>  <SCORE.INTRA.REPUL>
0

>  <SCORE.INTRA.REPUL.0>
0

>  <SCORE.INTRA.VDW>
0.509538

>  <SCORE.INTRA.VDW.0>
-2.35165

>  <SCORE.INTRA.norm>
0.0302885

>  <SCORE.RESTR>
0

>  <SCORE.RESTR.CAVITY>
0

>  <SCORE.RESTR.norm>
0

>  <SCORE.SYSTEM>
0

>  <SCORE.SYSTEM.CONST>
0

>  <SCORE.SYSTEM.DIHEDRAL>
0

>  <SCORE.SYSTEM.norm>
0

>  <SCORE.heavy>
23

>  <SCORE.norm>
-0.875127

$$$$
design_2
 OpenBabel05252019093D

 24 26  0  0  0  0  0  0  0  0999 V2000
   44.9043  -46.4808   -0.3797 C   0  0  0  0  0  0  0  0  0  0  0  0
   44.5981  -45.4805    0.6943 C   0  0  2  0  0  0  0  0  0  0  0  0
   45.1584  -45.9731    2.0078 C   0  0  0  0  0  0  0  0  0  0  0  0
   44.8183  -44.9575    3.0615 C   0  0  0  0  0  0  0  0  0  0  0  0
   43.3227  -44.8124    3.2324 C   0  0  2  0  0  0  0  0  0  0  0  0
   42.6859  -46.0187    3.6487 N   0  0  0  0  0  0  0  0  0  0  0  0
   41.4409  -45.9862    4.3320 C   0  0  0  0  0  0  0  0  0  0  0  0
   40.8712  -44.8719    4.5849 O   0  0  0  0  0  0  0  0  0  0  0  0
   40.7841  -47.1664    4.7578 N   0  0  0  0  0  0  0  0  0  0  0  0
   39.5298  -47.0790    5.4430 C   0  0  0  0  0  0  0  0  0  0  0  0
   39.6047  -47.8643    6.7236 C   0  0  0  0  0  0  0  0  0  0  0  0
   40.7605  -47.5070    7.3806 O   0  0  0  0  0  0  0  0  0  0  0  0
   40.6170  -46.2542    7.9271 C   0  0  1  0  0  0  0  0  0  0  0  0
   39.9263  -46.3265    9.2628 C   0  0  0  0  0  0  0  0  0  0  0  0
   39.9307  -44.9371    9.8729 C   0  0  0  0  0  0  0  0  0  0  0  0
   41.3319  -44.5909   10.2572 C   0  0  0  0  0  0  0  0  0  0  0  0
   42.2890  -44.8690    9.1575 C   0  0  0  0  0  0  0  0  0  0  0  0
   43.5822  -44.3387    9.1973 C   0  0  0  0  0  0  0  0  0  0  0  0
   44.5037  -44.5723    8.2018 C   0  0  0  0  0  0  0  0  0  0  0  0
   44.1494  -45.3548    7.1237 C   0  0  0  0  0  0  0  0  0  0  0  0
   42.8983  -45.8984    7.0339 C   0  0  0  0  0  0  0  0  0  0  0  0
   41.9832  -45.6401    8.0664 C   0  0  0  0  0  0  0  0  0  0  0  0
   42.7909  -44.3120    1.8836 C   0  0  0  0  0  0  0  0  0  0  0  0
   43.0858  -45.3736    0.8459 C   0  0  0  0  0  0  0  0  0  0  0  0
  2  1  1  6  0  0  0
  2  3  1  0  0  0  0
  3  4  1  0  0  0  0
  4  5  1  0  0  0  0
  5  6  1  6  0  0  0
  5 23  1  0  0  0  0
  6  7  1  0  0  0  0
  7  8  2  0  0  0  0
  7  9  1  0  0  0  0
  9 10  1  0  0  0  0
 10 11  1  0  0  0  0
 11 12  1  0  0  0  0
 13 12  1  1  0  0  0
 13 14  1  0  0  0  0
 14 15  1  0  0  0  0
 15 16  1  0  0  0  0
 16 17  1  0  0  0  0
 17 18  2  0  0  0  0
 18 19  1  0  0  0  0
 19 20  2  0  0  0  0
 20 21  1  0  0  0  0
 21 22  2  0  0  0  0
 22 13  1  0  0  0  0
 22 17  1  0  0  0  0
 23 24  1  0  0  0  0
 24  2  1  0  0  0  0
M  END
>  <CHROM.1>
156.07898822,-127.91274231,48.38502410,73.86586900,83.78262287,42.28920877
-45.72697437,5.53145817,1.16066751,-0.46178307,-1.75331505

>  <Name>
design_2

>  <RI>
0

>  <Rbt.Current_Directory>
/home/ziqiaoxu/icml18-jtnn/VAEdesign

>  <Rbt.Executable>
rbdock ($Id: //depot/dev/client3/rdock/2013.1/src/exe/rbdock.cxx#4 $)

>  <Rbt.Library>
libRbt.so (2013.1, Build901 2013/11/27)

>  <Rbt.Parameter_File>
/export/apps/rDock/src/rDock_2013.1_src//data/scripts/dock.prm

>  <Rbt.Receptor>
/home/ziqiaoxu/icml18-jtnn/VAEdesign/targets/RdRp-SARS-CoV-2/pocket_docking.prm

>  <SCORE>
-19.1486

>  <SCORE.INTER>
-17.9828

>  <SCORE.INTER.CONST>
1

>  <SCORE.INTER.POLAR>
-0.871292

>  <SCORE.INTER.REPUL>
0

>  <SCORE.INTER.ROT>
5

>  <SCORE.INTER.VDW>
-25.4204

>  <SCORE.INTER.norm>
-0.749284

>  <SCORE.INTRA>
-1.16578

>  <SCORE.INTRA.DIHEDRAL>
-3.29772

>  <SCORE.INTRA.DIHEDRAL.0>
9.55223

>  <SCORE.INTRA.POLAR>
0

>  <SCORE.INTRA.POLAR.0>
0

>  <SCORE.INTRA.REPUL>
0

>  <SCORE.INTRA.REPUL.0>
0

>  <SCORE.INTRA.VDW>
0.483078

>  <SCORE.INTRA.VDW.0>
-1.32909

>  <SCORE.INTRA.norm>
-0.0485743

>  <SCORE.RESTR>
0

>  <SCORE.RESTR.CAVITY>
0

>  <SCORE.RESTR.norm>
0

>  <SCORE.SYSTEM>
0

>  <SCORE.SYSTEM.CONST>
0

>  <SCORE.SYSTEM.DIHEDRAL>
0

>  <SCORE.SYSTEM.norm>
0

>  <SCORE.heavy>
24

>  <SCORE.norm>
-0.797859

$$$$
design_0
 OpenBabel05252019093D

 20 21  0  0  0  0  0  0  0  0999 V2000
   42.8532  -45.4344    6.1703 C   0  0  0  0  0  0  0  0  0  0  0  0
   41.9955  -46.5214    6.4765 O   0  0  0  0  0  0  0  0  0  0  0  0
   41.2021  -46.4297    7.6092 C   0  0  0  0  0  0  0  0  0  0  0  0
   41.5474  -45.6715    8.7052 C   0  0  0  0  0  0  0  0  0  0  0  0
   40.7453  -45.5879    9.8333 C   0  0  0  0  0  0  0  0  0  0  0  0
   39.5639  -46.2728    9.8855 C   0  0  0  0  0  0  0  0  0  0  0  0
   39.2100  -47.0369    8.7881 C   0  0  0  0  0  0  0  0  0  0  0  0
   39.9968  -47.1298    7.6596 C   0  0  0  0  0  0  0  0  0  0  0  0
   39.4772  -48.1114    6.3182 S   0  0  0  0  0  0  0  0  0  0  0  0
   39.5472  -49.5518    6.7391 O   0  0  0  0  0  0  0  0  0  0  0  0
   40.4649  -47.9564    5.1806 O   0  0  0  0  0  0  0  0  0  0  0  0
   37.9129  -47.6969    5.7698 N   0  0  0  0  0  0  0  0  0  0  0  0
   37.4492  -46.3643    5.7892 C   0  0  0  0  0  0  0  0  0  0  0  0
   36.1354  -46.0472    5.4130 C   0  0  0  0  0  0  0  0  0  0  0  0
   35.6547  -44.7626    5.4246 C   0  0  0  0  0  0  0  0  0  0  0  0
   36.4691  -43.7071    5.8177 C   0  0  0  0  0  0  0  0  0  0  0  0
   35.9979  -42.2981    5.8483 C   0  0  0  0  0  0  0  0  0  0  0  0
   37.7573  -44.0049    6.1880 C   0  0  0  0  0  0  0  0  0  0  0  0
   38.6583  -42.9102    6.6136 C   0  0  0  0  0  0  0  0  0  0  0  0
   38.2323  -45.2949    6.1739 C   0  0  0  0  0  0  0  0  0  0  0  0
  1  2  1  0  0  0  0
  2  3  1  0  0  0  0
  3  4  2  0  0  0  0
  4  5  1  0  0  0  0
  5  6  2  0  0  0  0
  6  7  1  0  0  0  0
  7  8  2  0  0  0  0
  8  9  1  0  0  0  0
  8  3  1  0  0  0  0
  9 10  2  0  0  0  0
  9 11  2  0  0  0  0
  9 12  1  0  0  0  0
 12 13  1  0  0  0  0
 13 14  2  0  0  0  0
 14 15  1  0  0  0  0
 15 16  2  0  0  0  0
 16 17  1  0  0  0  0
 16 18  1  0  0  0  0
 18 19  1  0  0  0  0
 18 20  2  0  0  0  0
 20 13  1  0  0  0  0
M  END
>  <CHROM.1>
-27.14707322,110.94759165,34.63243040,-176.07624855,39.12259565,-46.11720367
6.74874693,-0.48138799,-0.50290262,0.29498108

>  <Name>
design_0

>  <RI>
0

>  <Rbt.Current_Directory>
/home/ziqiaoxu/icml18-jtnn/VAEdesign

>  <Rbt.Executable>
rbdock ($Id: //depot/dev/client3/rdock/2013.1/src/exe/rbdock.cxx#4 $)

>  <Rbt.Library>
libRbt.so (2013.1, Build901 2013/11/27)

>  <Rbt.Parameter_File>
/export/apps/rDock/src/rDock_2013.1_src//data/scripts/dock.prm

>  <Rbt.Receptor>
/home/ziqiaoxu/icml18-jtnn/VAEdesign/targets/RdRp-SARS-CoV-2/pocket_docking.prm

>  <SCORE>
-19.3406

>  <SCORE.INTER>
-16.0203

>  <SCORE.INTER.CONST>
1

>  <SCORE.INTER.POLAR>
0

>  <SCORE.INTER.REPUL>
0

>  <SCORE.INTER.ROT>
4

>  <SCORE.INTER.VDW>
-25.4203

>  <SCORE.INTER.norm>
-0.801017

>  <SCORE.INTRA>
-3.32027

>  <SCORE.INTRA.DIHEDRAL>
-5.77214

>  <SCORE.INTRA.DIHEDRAL.0>
9.23002

>  <SCORE.INTRA.POLAR>
0

>  <SCORE.INTRA.POLAR.0>
0

>  <SCORE.INTRA.REPUL>
0

>  <SCORE.INTRA.REPUL.0>
0

>  <SCORE.INTRA.VDW>
-0.434203

>  <SCORE.INTRA.VDW.0>
-0.0823212

>  <SCORE.INTRA.norm>
-0.166014

>  <SCORE.RESTR>
0

>  <SCORE.RESTR.CAVITY>
0

>  <SCORE.RESTR.norm>
0

>  <SCORE.SYSTEM>
0

>  <SCORE.SYSTEM.CONST>
0

>  <SCORE.SYSTEM.DIHEDRAL>
0

>  <SCORE.SYSTEM.norm>
0

>  <SCORE.heavy>
20

>  <SCORE.norm>
-0.967031

$$$$
design_19
 OpenBabel05252019093D

 25 27  0  0  0  0  0  0  0  0999 V2000
   40.7805  -37.9540    1.6500 C   0  0  0  0  0  0  0  0  0  0  0  0
   40.5690  -38.7098    2.8953 N   0  0  0  0  0  0  0  0  0  0  0  0
   40.6050  -38.0504    4.1381 C   0  0  0  0  0  0  0  0  0  0  0  0
   40.8237  -36.8018    4.1305 O   0  0  0  0  0  0  0  0  0  0  0  0
   40.4050  -38.7294    5.4116 C   0  0  0  0  0  0  0  0  0  0  0  0
   40.3609  -38.0463    6.5996 C   0  0  0  0  0  0  0  0  0  0  0  0
   40.1700  -38.7396    7.7662 C   0  0  0  0  0  0  0  0  0  0  0  0
   40.0203  -40.0948    7.8027 C   0  0  0  0  0  0  0  0  0  0  0  0
   39.8478  -40.8876    8.9607 N   0  0  0  0  0  0  0  0  0  0  0  0
   40.0451  -42.2799    8.9889 C   0  0  0  0  0  0  0  0  0  0  0  0
   40.3810  -42.8942    7.9682 O   0  0  0  0  0  0  0  0  0  0  0  0
   39.8439  -42.9864   10.2553 C   0  0  0  0  0  0  0  0  0  0  0  0
   40.7667  -44.0977   10.5733 C   0  0  0  0  0  0  0  0  0  0  0  0
   41.1771  -44.9340    9.4876 N   0  0  0  0  0  0  0  0  0  0  0  0
   42.3188  -44.9181    8.8331 N   0  0  0  0  0  0  0  0  0  0  0  0
   42.3737  -45.8184    7.8635 C   0  0  0  0  0  0  0  0  0  0  0  0
   41.1590  -46.5023    7.8655 C   0  0  0  0  0  0  0  0  0  0  0  0
   40.6562  -47.5287    7.0926 C   0  0  0  0  0  0  0  0  0  0  0  0
   39.3851  -47.9950    7.3542 C   0  0  0  0  0  0  0  0  0  0  0  0
   38.7468  -49.0950    6.5844 C   0  0  0  0  0  0  0  0  0  0  0  0
   38.6559  -47.4083    8.3936 C   0  0  0  0  0  0  0  0  0  0  0  0
   39.1862  -46.3805    9.1519 C   0  0  0  0  0  0  0  0  0  0  0  0
   40.4435  -45.9225    8.8898 C   0  0  0  0  0  0  0  0  0  0  0  0
   40.0691  -40.7711    6.5708 C   0  0  0  0  0  0  0  0  0  0  0  0
   40.2582  -40.1017    5.3920 C   0  0  0  0  0  0  0  0  0  0  0  0
  1  2  1  0  0  0  0
  2  3  1  0  0  0  0
  3  4  2  0  0  0  0
  3  5  1  0  0  0  0
  5  6  2  0  0  0  0
  6  7  1  0  0  0  0
  7  8  2  0  0  0  0
  8  9  1  0  0  0  0
  8 24  1  0  0  0  0
  9 10  1  0  0  0  0
 10 11  2  0  0  0  0
 10 12  1  0  0  0  0
 12 13  1  0  0  0  0
 13 14  1  0  0  0  0
 14 15  1  0  0  0  0
 15 16  2  0  0  0  0
 16 17  1  0  0  0  0
 17 18  2  0  0  0  0
 18 19  1  0  0  0  0
 19 20  1  0  0  0  0
 19 21  2  0  0  0  0
 21 22  1  0  0  0  0
 22 23  2  0  0  0  0
 23 14  1  0  0  0  0
 23 17  1  0  0  0  0
 24 25  2  0  0  0  0
 25  5  1  0  0  0  0
M  END
>  <CHROM.1>
-175.75045734,-162.73808606,-142.11704315,-37.72351682,101.84166061,40.36502153
-42.64825129,7.18469493,0.86812174,-1.50978512,-1.12249409

>  <Name>
design_19

>  <RI>
0

>  <Rbt.Current_Directory>
/home/ziqiaoxu/icml18-jtnn/VAEdesign

>  <Rbt.Executable>
rbdock ($Id: //depot/dev/client3/rdock/2013.1/src/exe/rbdock.cxx#4 $)

>  <Rbt.Library>
libRbt.so (2013.1, Build901 2013/11/27)

>  <Rbt.Parameter_File>
/export/apps/rDock/src/rDock_2013.1_src//data/scripts/dock.prm

>  <Rbt.Receptor>
/home/ziqiaoxu/icml18-jtnn/VAEdesign/targets/RdRp-SARS-CoV-2/pocket_docking.prm

>  <SCORE>
-19.8849

>  <SCORE.INTER>
-21.8766

>  <SCORE.INTER.CONST>
1

>  <SCORE.INTER.POLAR>
-2.02375

>  <SCORE.INTER.REPUL>
0.00406637

>  <SCORE.INTER.ROT>
5

>  <SCORE.INTER.VDW>
-25.4162

>  <SCORE.INTER.norm>
-0.875065

>  <SCORE.INTRA>
1.99174

>  <SCORE.INTRA.DIHEDRAL>
1.86952

>  <SCORE.INTRA.DIHEDRAL.0>
5.60046

>  <SCORE.INTRA.POLAR>
0

>  <SCORE.INTRA.POLAR.0>
0

>  <SCORE.INTRA.REPUL>
0

>  <SCORE.INTRA.REPUL.0>
0

>  <SCORE.INTRA.VDW>
1.05698

>  <SCORE.INTRA.VDW.0>
-0.769651

>  <SCORE.INTRA.norm>
0.0796695

>  <SCORE.RESTR>
0

>  <SCORE.RESTR.CAVITY>
0

>  <SCORE.RESTR.norm>
0

>  <SCORE.SYSTEM>
0

>  <SCORE.SYSTEM.CONST>
0

>  <SCORE.SYSTEM.DIHEDRAL>
0

>  <SCORE.SYSTEM.norm>
0

>  <SCORE.heavy>
25

>  <SCORE.norm>
-0.795395

$$$$
design_1
 OpenBabel05252019093D

 24 25  0  0  0  0  0  0  0  0999 V2000
   44.1917  -45.5373   -0.2035 C   0  0  0  0  0  0  0  0  0  0  0  0
   45.2205  -46.0104    0.7417 C   0  0  0  0  0  0  0  0  0  0  0  0
   46.2758  -46.7703    0.3304 C   0  0  0  0  0  0  0  0  0  0  0  0
   47.2205  -47.1961    1.2416 C   0  0  0  0  0  0  0  0  0  0  0  0
   48.3859  -48.0319    0.8025 C   0  0  0  0  0  0  0  0  0  0  0  0
   47.1120  -46.8631    2.5672 C   0  0  0  0  0  0  0  0  0  0  0  0
   46.0271  -46.0795    3.0034 C   0  0  0  0  0  0  0  0  0  0  0  0
   46.0224  -45.7793    4.3794 N   0  0  0  0  0  0  0  0  0  0  0  0
   45.5428  -44.5825    4.9112 C   0  0  0  0  0  0  0  0  0  0  0  0
   45.0586  -43.6334    4.2795 O   0  0  0  0  0  0  0  0  0  0  0  0
   45.6141  -44.4108    6.4086 C   0  0  0  0  0  0  0  0  0  0  0  0
   44.7966  -45.3794    7.0984 N   0  0  0  0  0  0  0  0  0  0  0  0
   44.0158  -44.5506    8.3964 S   0  0  0  0  0  0  0  0  0  0  0  0
   44.8429  -44.7956    9.6354 O   0  0  0  0  0  0  0  0  0  0  0  0
   43.9915  -43.0667    8.1688 O   0  0  0  0  0  0  0  0  0  0  0  0
   42.3989  -45.1919    8.5814 C   0  0  0  0  0  0  0  0  0  0  0  0
   41.6050  -44.7919    9.6371 C   0  0  0  0  0  0  0  0  0  0  0  0
   40.3281  -45.2980    9.7840 C   0  0  0  0  0  0  0  0  0  0  0  0
   39.7898  -46.2119    8.9009 C   0  0  0  0  0  0  0  0  0  0  0  0
   38.4069  -46.7373    9.0908 C   0  0  0  0  0  0  0  0  0  0  0  0
   40.5804  -46.6141    7.8446 C   0  0  0  0  0  0  0  0  0  0  0  0
   40.0663  -47.6013    6.8469 C   0  0  0  0  0  0  0  0  0  0  0  0
   41.8662  -46.1071    7.6930 C   0  0  0  0  0  0  0  0  0  0  0  0
   45.0987  -45.6663    2.0783 C   0  0  0  0  0  0  0  0  0  0  0  0
  1  2  1  0  0  0  0
  2  3  2  0  0  0  0
  3  4  1  0  0  0  0
  4  5  1  0  0  0  0
  4  6  2  0  0  0  0
  6  7  1  0  0  0  0
  7  8  1  0  0  0  0
  7 24  2  0  0  0  0
  8  9  1  0  0  0  0
  9 10  2  0  0  0  0
  9 11  1  0  0  0  0
 11 12  1  0  0  0  0
 12 13  1  0  0  0  0
 13 14  2  0  0  0  0
 13 15  2  0  0  0  0
 13 16  1  0  0  0  0
 16 17  2  0  0  0  0
 17 18  1  0  0  0  0
 18 19  2  0  0  0  0
 19 20  1  0  0  0  0
 19 21  1  0  0  0  0
 21 22  1  0  0  0  0
 21 23  2  0  0  0  0
 23 16  1  0  0  0  0
 24  2  1  0  0  0  0
M  END
>  <CHROM.1>
146.15627313,-63.37162187,-139.04030473,-96.61589438,173.60737401,43.95768987
-45.61583062,5.70159793,0.93160255,-0.36387518,-1.94580079

>  <Name>
design_1

>  <RI>
0

>  <Rbt.Current_Directory>
/home/ziqiaoxu/icml18-jtnn/VAEdesign

>  <Rbt.Executable>
rbdock ($Id: //depot/dev/client3/rdock/2013.1/src/exe/rbdock.cxx#4 $)

>  <Rbt.Library>
libRbt.so (2013.1, Build901 2013/11/27)

>  <Rbt.Parameter_File>
/export/apps/rDock/src/rDock_2013.1_src//data/scripts/dock.prm

>  <Rbt.Receptor>
/home/ziqiaoxu/icml18-jtnn/VAEdesign/targets/RdRp-SARS-CoV-2/pocket_docking.prm

>  <SCORE>
-17.9413

>  <SCORE.INTER>
-20.7727

>  <SCORE.INTER.CONST>
1

>  <SCORE.INTER.POLAR>
-1.69322

>  <SCORE.INTER.REPUL>
0

>  <SCORE.INTER.ROT>
5

>  <SCORE.INTER.VDW>
-25.4158

>  <SCORE.INTER.norm>
-0.865531

>  <SCORE.INTRA>
2.83147

>  <SCORE.INTRA.DIHEDRAL>
6.07493

>  <SCORE.INTRA.DIHEDRAL.0>
3.67781

>  <SCORE.INTRA.POLAR>
0

>  <SCORE.INTRA.POLAR.0>
0

>  <SCORE.INTRA.REPUL>
0

>  <SCORE.INTRA.REPUL.0>
0

>  <SCORE.INTRA.VDW>
-0.206002

>  <SCORE.INTRA.VDW.0>
-1.23865

>  <SCORE.INTRA.norm>
0.117978

>  <SCORE.RESTR>
0

>  <SCORE.RESTR.CAVITY>
0

>  <SCORE.RESTR.norm>
0

>  <SCORE.SYSTEM>
0

>  <SCORE.SYSTEM.CONST>
0

>  <SCORE.SYSTEM.DIHEDRAL>
0

>  <SCORE.SYSTEM.norm>
0

>  <SCORE.heavy>
24

>  <SCORE.norm>
-0.747553

$$$$
design_3
 OpenBabel05252019093D

 24 25  0  0  0  0  0  0  0  0999 V2000
   39.8669  -36.0958    4.1080 N   0  0  0  0  0  0  0  0  0  0  0  0
   39.9110  -37.5019    4.0444 C   0  0  0  0  0  0  0  0  0  0  0  0
   39.9865  -38.0977    2.9524 O   0  0  0  0  0  0  0  0  0  0  0  0
   39.8670  -38.2758    5.2870 C   0  0  0  0  0  0  0  0  0  0  0  0
   39.9472  -37.6552    6.5117 C   0  0  0  0  0  0  0  0  0  0  0  0
   39.9036  -38.4029    7.6615 C   0  0  0  0  0  0  0  0  0  0  0  0
   39.7788  -39.8010    7.6547 C   0  0  0  0  0  0  0  0  0  0  0  0
   39.7438  -40.4692    8.8722 N   0  0  0  0  0  0  0  0  0  0  0  0
   39.7599  -41.8598    9.1105 C   0  0  0  0  0  0  0  0  0  0  0  0
   39.8101  -42.7532    8.2377 O   0  0  0  0  0  0  0  0  0  0  0  0
   39.7144  -42.3854   10.5311 C   0  0  0  0  0  0  0  0  0  0  0  0
   40.5261  -43.6278   10.6691 C   0  0  0  0  0  0  0  0  0  0  0  0
   40.0153  -44.7710    9.9717 N   0  0  0  0  0  0  0  0  0  0  0  0
   40.7158  -45.3832    8.9068 C   0  0  0  0  0  0  0  0  0  0  0  0
   41.8207  -44.9333    8.5455 O   0  0  0  0  0  0  0  0  0  0  0  0
   40.1544  -46.5398    8.2264 C   0  0  0  0  0  0  0  0  0  0  0  0
   39.1186  -47.2149    8.8259 C   0  0  0  0  0  0  0  0  0  0  0  0
   38.5994  -48.3093    8.1652 C   0  0  0  0  0  0  0  0  0  0  0  0
   39.0661  -48.7457    6.9532 C   0  0  0  0  0  0  0  0  0  0  0  0
   40.1033  -48.0652    6.3587 C   0  0  0  0  0  0  0  0  0  0  0  0
   40.6361  -46.9721    6.9985 C   0  0  0  0  0  0  0  0  0  0  0  0
   41.9506  -46.1287    6.2207 Cl  0  0  0  0  0  0  0  0  0  0  0  0
   39.7011  -40.3967    6.4407 C   0  0  0  0  0  0  0  0  0  0  0  0
   39.7446  -39.6422    5.2618 C   0  0  0  0  0  0  0  0  0  0  0  0
  1  2  1  0  0  0  0
  2  3  2  0  0  0  0
  2  4  1  0  0  0  0
  4  5  2  0  0  0  0
  5  6  1  0  0  0  0
  6  7  2  0  0  0  0
  7  8  1  0  0  0  0
  7 23  1  0  0  0  0
  8  9  1  0  0  0  0
  9 10  2  0  0  0  0
  9 11  1  0  0  0  0
 11 12  1  0  0  0  0
 12 13  1  0  0  0  0
 13 14  1  0  0  0  0
 14 15  2  0  0  0  0
 14 16  1  0  0  0  0
 16 17  2  0  0  0  0
 17 18  1  0  0  0  0
 18 19  2  0  0  0  0
 19 20  1  0  0  0  0
 20 21  2  0  0  0  0
 21 22  1  0  0  0  0
 21 16  1  0  0  0  0
 23 24  2  0  0  0  0
 24  4  1  0  0  0  0
M  END
>  <CHROM.1>
-7.95849661,-172.99112961,-145.20770414,-67.58897441,115.83406555,-15.50419550
40.14985325,-42.82072717,7.28302475,-1.88516298,-1.44676207,2.54761562

>  <Name>
design_3

>  <RI>
0

>  <Rbt.Current_Directory>
/home/ziqiaoxu/icml18-jtnn/VAEdesign

>  <Rbt.Executable>
rbdock ($Id: //depot/dev/client3/rdock/2013.1/src/exe/rbdock.cxx#4 $)

>  <Rbt.Library>
libRbt.so (2013.1, Build901 2013/11/27)

>  <Rbt.Parameter_File>
/export/apps/rDock/src/rDock_2013.1_src//data/scripts/dock.prm

>  <Rbt.Receptor>
/home/ziqiaoxu/icml18-jtnn/VAEdesign/targets/RdRp-SARS-CoV-2/pocket_docking.prm

>  <SCORE>
-28.3078

>  <SCORE.INTER>
-23.9334

>  <SCORE.INTER.CONST>
1

>  <SCORE.INTER.POLAR>
-2.91738

>  <SCORE.INTER.REPUL>
0

>  <SCORE.INTER.ROT>
6

>  <SCORE.INTER.VDW>
-25.4143

>  <SCORE.INTER.norm>
-0.997227

>  <SCORE.INTRA>
-4.37434

>  <SCORE.INTRA.DIHEDRAL>
-10.2033

>  <SCORE.INTRA.DIHEDRAL.0>
15.0963

>  <SCORE.INTRA.POLAR>
0

>  <SCORE.INTRA.POLAR.0>
0

>  <SCORE.INTRA.REPUL>
0

>  <SCORE.INTRA.REPUL.0>
0

>  <SCORE.INTRA.VDW>
0.727326

>  <SCORE.INTRA.VDW.0>
0.25804

>  <SCORE.INTRA.norm>
-0.182264

>  <SCORE.RESTR>
0

>  <SCORE.RESTR.CAVITY>
0

>  <SCORE.RESTR.norm>
0

>  <SCORE.SYSTEM>
0

>  <SCORE.SYSTEM.CONST>
0

>  <SCORE.SYSTEM.DIHEDRAL>
0

>  <SCORE.SYSTEM.norm>
0

>  <SCORE.heavy>
24

>  <SCORE.norm>
-1.17949

$$$$
design_9
 OpenBabel05252019093D

 25 27  0  0  0  0  0  0  0  0999 V2000
   40.1298  -36.4394    6.5106 N   0  0  0  0  0  0  0  0  0  0  0  0
   40.3102  -37.6363    5.7791 C   0  0  0  0  0  0  0  0  0  0  0  0
   40.4416  -37.6164    4.5321 O   0  0  0  0  0  0  0  0  0  0  0  0
   40.3331  -38.8972    6.5550 C   0  0  0  0  0  0  0  0  0  0  0  0
   40.3901  -38.8530    7.9258 C   0  0  0  0  0  0  0  0  0  0  0  0
   40.4000  -40.0367    8.6417 C   0  0  0  0  0  0  0  0  0  0  0  0
   40.3553  -41.2748    8.0445 C   0  0  0  0  0  0  0  0  0  0  0  0
   40.3444  -42.4934    8.7984 C   0  0  0  0  0  0  0  0  0  0  0  0
   40.3541  -43.5257    9.4097 C   0  0  0  0  0  0  0  0  0  0  0  0
   40.3925  -44.8349   10.1500 C   0  0  0  0  0  0  0  0  0  0  0  0
   39.6152  -45.7289    9.5678 N   0  0  0  0  0  0  0  0  0  0  0  0
   38.7903  -46.6774    8.9501 C   0  0  0  0  0  0  0  0  0  0  0  0
   37.5458  -46.7232    8.9415 O   0  0  0  0  0  0  0  0  0  0  0  0
   39.4175  -47.8236    8.1676 C   0  0  0  0  0  0  0  0  0  0  0  0
   40.3402  -47.1648    7.2085 C   0  0  0  0  0  0  0  0  0  0  0  0
   40.0130  -46.9745    5.8986 C   0  0  0  0  0  0  0  0  0  0  0  0
   40.9043  -46.3473    5.0732 C   0  0  0  0  0  0  0  0  0  0  0  0
   42.1310  -45.8898    5.4963 C   0  0  0  0  0  0  0  0  0  0  0  0
   42.4342  -46.0995    6.8315 C   0  0  0  0  0  0  0  0  0  0  0  0
   41.5598  -46.7217    7.6674 C   0  0  0  0  0  0  0  0  0  0  0  0
   43.7088  -45.5565    7.0081 O   0  0  0  0  0  0  0  0  0  0  0  0
   44.2815  -45.2570    5.7268 C   0  0  0  0  0  0  0  0  0  0  0  0
   43.1491  -45.2475    4.8432 O   0  0  0  0  0  0  0  0  0  0  0  0
   40.2988  -41.2761    6.6585 C   0  0  0  0  0  0  0  0  0  0  0  0
   40.2879  -40.1157    5.9301 C   0  0  0  0  0  0  0  0  0  0  0  0
  1  2  1  0  0  0  0
  2  3  2  0  0  0  0
  2  4  1  0  0  0  0
  4  5  2  0  0  0  0
  5  6  1  0  0  0  0
  6  7  2  0  0  0  0
  7  8  1  0  0  0  0
  7 24  1  0  0  0  0
  8  9  3  0  0  0  0
  9 10  1  0  0  0  0
 10 11  1  0  0  0  0
 11 12  1  0  0  0  0
 12 13  2  0  0  0  0
 12 14  1  0  0  0  0
 14 15  1  0  0  0  0
 15 16  2  0  0  0  0
 16 17  1  0  0  0  0
 17 18  2  0  0  0  0
 18 19  1  0  0  0  0
 19 20  2  0  0  0  0
 19 21  1  0  0  0  0
 20 15  1  0  0  0  0
 21 22  1  0  0  0  0
 22 23  1  0  0  0  0
 23 18  1  0  0  0  0
 24 25  2  0  0  0  0
 25  4  1  0  0  0  0
M  END
>  <CHROM.1>
-10.00106984,-139.09800477,-80.74149785,-102.25782035,-52.94678572,-100.87233742
40.72799830,-43.39478707,7.19287336,1.63393550,0.80449504,-0.16779996

>  <Name>
design_9

>  <RI>
0

>  <Rbt.Current_Directory>
/home/ziqiaoxu/icml18-jtnn/VAEdesign

>  <Rbt.Executable>
rbdock ($Id: //depot/dev/client3/rdock/2013.1/src/exe/rbdock.cxx#4 $)

>  <Rbt.Library>
libRbt.so (2013.1, Build901 2013/11/27)

>  <Rbt.Parameter_File>
/export/apps/rDock/src/rDock_2013.1_src//data/scripts/dock.prm

>  <Rbt.Receptor>
/home/ziqiaoxu/icml18-jtnn/VAEdesign/targets/RdRp-SARS-CoV-2/pocket_docking.prm

>  <SCORE>
-20.9852

>  <SCORE.INTER>
-21.1085

>  <SCORE.INTER.CONST>
1

>  <SCORE.INTER.POLAR>
-2.18961

>  <SCORE.INTER.REPUL>
0.0698195

>  <SCORE.INTER.ROT>
6

>  <SCORE.INTER.VDW>
-25.4129

>  <SCORE.INTER.norm>
-0.844341

>  <SCORE.INTRA>
-0.31219

>  <SCORE.INTRA.DIHEDRAL>
0.6276

>  <SCORE.INTRA.DIHEDRAL.0>
2.92846

>  <SCORE.INTRA.POLAR>
0

>  <SCORE.INTRA.POLAR.0>
0

>  <SCORE.INTRA.REPUL>
0

>  <SCORE.INTRA.REPUL.0>
0

>  <SCORE.INTRA.VDW>
-0.62599

>  <SCORE.INTRA.VDW.0>
-1.30593

>  <SCORE.INTRA.norm>
-0.0124876

>  <SCORE.RESTR>
0.435517

>  <SCORE.RESTR.CAVITY>
0.435517

>  <SCORE.RESTR.norm>
0.0174207

>  <SCORE.SYSTEM>
0

>  <SCORE.SYSTEM.CONST>
0

>  <SCORE.SYSTEM.DIHEDRAL>
0

>  <SCORE.SYSTEM.norm>
0

>  <SCORE.heavy>
25

>  <SCORE.norm>
-0.839408

$$$$
design_9
 OpenBabel05252019093D

 23 24  0  0  0  0  0  0  0  0999 V2000
   39.0963  -49.1835    6.8830 C   0  0  0  0  0  0  0  0  0  0  0  0
   39.4104  -47.9080    7.6014 C   0  0  0  0  0  0  0  0  0  0  0  0
   38.4682  -47.3789    8.4721 C   0  0  0  0  0  0  0  0  0  0  0  0
   38.7209  -46.2065    9.1506 C   0  0  0  0  0  0  0  0  0  0  0  0
   39.9098  -45.5064    8.9991 C   0  0  0  0  0  0  0  0  0  0  0  0
   40.1330  -44.2415    9.7627 C   0  0  0  0  0  0  0  0  0  0  0  0
   40.1725  -43.0935    8.8964 N   0  0  0  0  0  0  0  0  0  0  0  0
   39.9512  -41.7839    9.4640 C   0  0  0  0  0  0  0  0  0  0  0  0
   39.7385  -41.7430   10.6807 O   0  0  0  0  0  0  0  0  0  0  0  0
   40.0009  -40.7275    8.5912 N   0  0  0  0  0  0  0  0  0  0  0  0
   40.0487  -39.7094    7.7513 C   0  0  0  0  0  0  0  0  0  0  0  0
   39.2795  -39.9208    6.4244 C   0  0  0  0  0  0  0  0  0  0  0  0
   39.6171  -38.7447    5.5854 C   0  0  0  0  0  0  0  0  0  0  0  0
   39.4940  -37.4777    6.0919 C   0  0  0  0  0  0  0  0  0  0  0  0
   39.7814  -36.3656    5.3248 C   0  0  0  0  0  0  0  0  0  0  0  0
   40.1948  -36.5425    4.0381 C   0  0  0  0  0  0  0  0  0  0  0  0
   40.3162  -37.8327    3.5315 C   0  0  0  0  0  0  0  0  0  0  0  0
   40.7333  -38.0202    2.1559 C   0  0  0  0  0  0  0  0  0  0  0  0
   40.8423  -39.3137    1.5569 N   0  0  0  0  0  0  0  0  0  0  0  0
   41.0095  -37.0041    1.4619 O   0  0  0  0  0  0  0  0  0  0  0  0
   40.0329  -38.9413    4.2857 C   0  0  0  0  0  0  0  0  0  0  0  0
   40.8446  -46.0255    8.1376 C   0  0  0  0  0  0  0  0  0  0  0  0
   40.5864  -47.2282    7.4433 C   0  0  0  0  0  0  0  0  0  0  0  0
  1  2  1  0  0  0  0
  2  3  2  0  0  0  0
  3  4  1  0  0  0  0
  4  5  2  0  0  0  0
  5  6  1  0  0  0  0
  5 22  1  0  0  0  0
  6  7  1  0  0  0  0
  7  8  1  0  0  0  0
  8  9  2  0  0  0  0
  8 10  1  0  0  0  0
 10 11  1  0  0  0  0
 11 12  1  0  0  0  0
 12 13  1  0  0  0  0
 13 14  2  0  0  0  0
 14 15  1  0  0  0  0
 15 16  2  0  0  0  0
 16 17  1  0  0  0  0
 17 18  1  0  0  0  0
 17 21  2  0  0  0  0
 18 19  1  0  0  0  0
 18 20  2  0  0  0  0
 21 13  1  0  0  0  0
 22 23  2  0  0  0  0
 23  2  1  0  0  0  0
M  END
>  <CHROM.1>
-112.36951945,160.41358561,-139.08442912,-172.84874778,-50.40931932,-178.15515359
39.94145389,-41.75700813,6.61031161,-2.32451278,1.46748416,0.25096730

>  <Name>
design_9

>  <RI>
0

>  <Rbt.Current_Directory>
/home/ziqiaoxu/icml18-jtnn/VAEdesign

>  <Rbt.Executable>
rbdock ($Id: //depot/dev/client3/rdock/2013.1/src/exe/rbdock.cxx#4 $)

>  <Rbt.Library>
libRbt.so (2013.1, Build901 2013/11/27)

>  <Rbt.Parameter_File>
/export/apps/rDock/src/rDock_2013.1_src//data/scripts/dock.prm

>  <Rbt.Receptor>
/home/ziqiaoxu/icml18-jtnn/VAEdesign/targets/RdRp-SARS-CoV-2/pocket_docking.prm

>  <SCORE>
-19.6857

>  <SCORE.INTER>
-21.1682

>  <SCORE.INTER.CONST>
1

>  <SCORE.INTER.POLAR>
-2.10481

>  <SCORE.INTER.REPUL>
0

>  <SCORE.INTER.ROT>
6

>  <SCORE.INTER.VDW>
-25.4118

>  <SCORE.INTER.norm>
-0.920354

>  <SCORE.INTRA>
1.47456

>  <SCORE.INTRA.DIHEDRAL>
0.979297

>  <SCORE.INTRA.DIHEDRAL.0>
3.8328

>  <SCORE.INTRA.POLAR>
0

>  <SCORE.INTRA.POLAR.0>
0

>  <SCORE.INTRA.REPUL>
0

>  <SCORE.INTRA.REPUL.0>
0

>  <SCORE.INTRA.VDW>
0.984908

>  <SCORE.INTRA.VDW.0>
-0.70176

>  <SCORE.INTRA.norm>
0.0641111

>  <SCORE.RESTR>
0.00787612

>  <SCORE.RESTR.CAVITY>
0.00787612

>  <SCORE.RESTR.norm>
0.00034244

>  <SCORE.SYSTEM>
0

>  <SCORE.SYSTEM.CONST>
0

>  <SCORE.SYSTEM.DIHEDRAL>
0

>  <SCORE.SYSTEM.norm>
0

>  <SCORE.heavy>
23

>  <SCORE.norm>
-0.855901

$$$$
design_13
 OpenBabel05252019093D

 25 28  0  0  0  0  0  0  0  0999 V2000
   41.1365  -44.4840   10.9959 C   0  0  0  0  0  0  0  0  0  0  0  0
   40.8194  -45.3977    9.8602 C   0  0  0  0  0  0  0  0  0  0  0  0
   39.6663  -46.1262    9.7968 N   0  0  0  0  0  0  0  0  0  0  0  0
   39.6203  -46.8117    8.6707 C   0  0  0  0  0  0  0  0  0  0  0  0
   38.6558  -47.6803    8.1761 C   0  0  0  0  0  0  0  0  0  0  0  0
   38.8670  -48.2698    6.9550 C   0  0  0  0  0  0  0  0  0  0  0  0
   39.9926  -48.0292    6.2140 C   0  0  0  0  0  0  0  0  0  0  0  0
   40.9442  -47.1440    6.7502 C   0  0  0  0  0  0  0  0  0  0  0  0
   40.7651  -46.5320    7.9766 C   0  0  0  0  0  0  0  0  0  0  0  0
   41.5598  -45.6160    8.7320 C   0  0  0  0  0  0  0  0  0  0  0  0
   42.8559  -45.1749    8.3106 C   0  0  0  0  0  0  0  0  0  0  0  0
   43.5396  -44.5882    9.2941 O   0  0  0  0  0  0  0  0  0  0  0  0
   43.6188  -45.1763    7.1604 N   0  0  0  0  0  0  0  0  0  0  0  0
   45.0020  -44.5799    7.3303 C   0  0  0  0  0  0  0  0  0  0  0  0
   45.0928  -43.3357    6.4903 C   0  0  0  0  0  0  0  0  0  0  0  0
   44.8710  -43.6442    5.0233 C   0  0  0  0  0  0  0  0  0  0  0  0
   44.5505  -45.0870    4.8568 C   0  0  2  0  0  0  0  0  0  0  0  0
   44.0334  -45.4617    3.5029 C   0  0  0  0  0  0  0  0  0  0  0  0
   45.0103  -45.5916    2.4344 C   0  0  0  0  0  0  0  0  0  0  0  0
   46.2504  -45.5949    2.6121 O   0  0  0  0  0  0  0  0  0  0  0  0
   44.5380  -45.7230    1.1052 N   0  0  0  0  0  0  0  0  0  0  0  0
   45.1589  -45.8703   -0.1936 C   0  0  0  0  0  0  0  0  0  0  0  0
   43.9338  -46.6942   -0.6008 C   0  0  0  0  0  0  0  0  0  0  0  0
   43.2561  -45.7727    0.4227 C   0  0  0  0  0  0  0  0  0  0  0  0
   43.4263  -45.5645    5.8146 C   0  0  0  0  0  0  0  0  0  0  0  0
  1  2  1  0  0  0  0
  2  3  1  0  0  0  0
  3  4  1  0  0  0  0
  4  5  2  0  0  0  0
  5  6  1  0  0  0  0
  6  7  2  0  0  0  0
  7  8  1  0  0  0  0
  8  9  2  0  0  0  0
  9 10  1  0  0  0  0
  9  4  1  0  0  0  0
 10 11  1  0  0  0  0
 10  2  2  0  0  0  0
 11 12  2  0  0  0  0
 11 13  1  0  0  0  0
 13 14  1  0  0  0  0
 14 15  1  0  0  0  0
 15 16  1  0  0  0  0
 16 17  1  0  0  0  0
 17 18  1  6  0  0  0
 17 25  1  0  0  0  0
 18 19  1  0  0  0  0
 19 20  2  0  0  0  0
 19 21  1  0  0  0  0
 21 22  1  0  0  0  0
 22 23  1  0  0  0  0
 23 24  1  0  0  0  0
 24 21  1  0  0  0  0
 25 13  1  0  0  0  0
M  END
>  <CHROM.1>
10.72610012,78.13735916,10.36739766,42.76004516,-45.72213786,5.86431896,-2.16563419
-0.55788301,-1.85859074

>  <Name>
design_13

>  <RI>
0

>  <Rbt.Current_Directory>
/home/ziqiaoxu/icml18-jtnn/VAEdesign

>  <Rbt.Executable>
rbdock ($Id: //depot/dev/client3/rdock/2013.1/src/exe/rbdock.cxx#4 $)

>  <Rbt.Library>
libRbt.so (2013.1, Build901 2013/11/27)

>  <Rbt.Parameter_File>
/export/apps/rDock/src/rDock_2013.1_src//data/scripts/dock.prm

>  <Rbt.Receptor>
/home/ziqiaoxu/icml18-jtnn/VAEdesign/targets/RdRp-SARS-CoV-2/pocket_docking.prm

>  <SCORE>
-20.4582

>  <SCORE.INTER>
-20.4788

>  <SCORE.INTER.CONST>
1

>  <SCORE.INTER.POLAR>
-1.0198

>  <SCORE.INTER.REPUL>
0

>  <SCORE.INTER.ROT>
3

>  <SCORE.INTER.VDW>
-25.4114

>  <SCORE.INTER.norm>
-0.819151

>  <SCORE.INTRA>
0.0205796

>  <SCORE.INTRA.DIHEDRAL>
1.51919

>  <SCORE.INTRA.DIHEDRAL.0>
1.30803

>  <SCORE.INTRA.POLAR>
0

>  <SCORE.INTRA.POLAR.0>
0

>  <SCORE.INTRA.REPUL>
0

>  <SCORE.INTRA.REPUL.0>
0

>  <SCORE.INTRA.VDW>
-0.739015

>  <SCORE.INTRA.VDW.0>
-0.339638

>  <SCORE.INTRA.norm>
0.000823186

>  <SCORE.RESTR>
0

>  <SCORE.RESTR.CAVITY>
0

>  <SCORE.RESTR.norm>
0

>  <SCORE.SYSTEM>
0

>  <SCORE.SYSTEM.CONST>
0

>  <SCORE.SYSTEM.DIHEDRAL>
0

>  <SCORE.SYSTEM.norm>
0

>  <SCORE.heavy>
25

>  <SCORE.norm>
-0.818328

$$$$
design_8
 OpenBabel05252019093D

 23 26  0  0  0  0  0  0  0  0999 V2000
   39.4820  -36.4850    2.6857 C   0  0  0  0  0  0  0  0  0  0  0  0
   39.7877  -36.7220    4.1103 C   0  0  0  0  0  0  0  0  0  0  0  0
   40.2177  -35.8214    4.9897 N   0  0  0  0  0  0  0  0  0  0  0  0
   40.3764  -36.4332    6.1730 N   0  0  0  0  0  0  0  0  0  0  0  0
   40.0495  -37.7216    6.0523 C   0  0  0  0  0  0  0  0  0  0  0  0
   40.0828  -38.7300    7.0950 C   0  0  0  0  0  0  0  0  0  0  0  0
   40.6412  -38.4741    8.3268 C   0  0  0  0  0  0  0  0  0  0  0  0
   40.6626  -39.4408    9.3050 C   0  0  0  0  0  0  0  0  0  0  0  0
   40.1113  -40.6823    9.0331 C   0  0  0  0  0  0  0  0  0  0  0  0
   39.5416  -40.9833    7.8158 C   0  0  0  0  0  0  0  0  0  0  0  0
   39.0226  -42.3033    7.6289 N   0  0  0  0  0  0  0  0  0  0  0  0
   38.0617  -42.7081    6.7282 C   0  0  0  0  0  0  0  0  0  0  0  0
   37.5641  -41.7894    5.9785 O   0  0  0  0  0  0  0  0  0  0  0  0
   37.5519  -44.0498    6.5360 C   0  0  0  0  0  0  0  0  0  0  0  0
   36.1772  -44.4443    5.4976 S   0  0  0  0  0  0  0  0  0  0  0  0
   36.1385  -46.1170    5.7369 C   0  0  0  0  0  0  0  0  0  0  0  0
   37.1351  -46.2987    6.5646 N   0  0  0  0  0  0  0  0  0  0  0  0
   37.8612  -45.2974    6.9841 C   0  0  0  0  0  0  0  0  0  0  0  0
   39.0441  -45.5402    7.9188 C   0  0  0  0  0  0  0  0  0  0  0  0
   39.5289  -47.0189    7.9471 C   0  0  0  0  0  0  0  0  0  0  0  0
   38.8929  -46.3983    9.1079 C   0  0  0  0  0  0  0  0  0  0  0  0
   39.5339  -40.0088    6.8641 C   0  0  0  0  0  0  0  0  0  0  0  0
   39.6861  -37.8990    4.7785 N   0  0  0  0  0  0  0  0  0  0  0  0
  1  2  1  0  0  0  0
  2  3  2  0  0  0  0
  3  4  1  0  0  0  0
  4  5  1  0  0  0  0
  5  6  1  0  0  0  0
  5 23  2  0  0  0  0
  6  7  2  0  0  0  0
  7  8  1  0  0  0  0
  8  9  2  0  0  0  0
  9 10  1  0  0  0  0
 10 11  1  0  0  0  0
 10 22  2  0  0  0  0
 11 12  1  0  0  0  0
 12 13  2  0  0  0  0
 12 14  1  0  0  0  0
 14 15  1  0  0  0  0
 15 16  1  0  0  0  0
 16 17  2  0  0  0  0
 17 18  1  0  0  0  0
 18 19  1  0  0  0  0
 18 14  2  0  0  0  0
 19 20  1  0  0  0  0
 20 21  1  0  0  0  0
 21 19  1  0  0  0  0
 22  6  1  0  0  0  0
 23  2  1  0  0  0  0
M  END
>  <CHROM.1>
-8.64052848,157.09425543,172.07010122,-160.80943097,38.84323051,-41.52498218
6.60035102,1.10819091,-0.92689402,-0.55134849

>  <Name>
design_8

>  <RI>
0

>  <Rbt.Current_Directory>
/home/ziqiaoxu/icml18-jtnn/VAEdesign

>  <Rbt.Executable>
rbdock ($Id: //depot/dev/client3/rdock/2013.1/src/exe/rbdock.cxx#4 $)

>  <Rbt.Library>
libRbt.so (2013.1, Build901 2013/11/27)

>  <Rbt.Parameter_File>
/export/apps/rDock/src/rDock_2013.1_src//data/scripts/dock.prm

>  <Rbt.Receptor>
/home/ziqiaoxu/icml18-jtnn/VAEdesign/targets/RdRp-SARS-CoV-2/pocket_docking.prm

>  <SCORE>
-18.1716

>  <SCORE.INTER>
-19.0329

>  <SCORE.INTER.CONST>
1

>  <SCORE.INTER.POLAR>
-0.889238

>  <SCORE.INTER.REPUL>
0

>  <SCORE.INTER.ROT>
4

>  <SCORE.INTER.VDW>
-25.4095

>  <SCORE.INTER.norm>
-0.827517

>  <SCORE.INTRA>
0.47968

>  <SCORE.INTRA.DIHEDRAL>
0.736073

>  <SCORE.INTRA.DIHEDRAL.0>
2.61086

>  <SCORE.INTRA.POLAR>
0

>  <SCORE.INTRA.POLAR.0>
0

>  <SCORE.INTRA.REPUL>
0

>  <SCORE.INTRA.REPUL.0>
0

>  <SCORE.INTRA.VDW>
0.111643

>  <SCORE.INTRA.VDW.0>
-1.66723

>  <SCORE.INTRA.norm>
0.0208556

>  <SCORE.RESTR>
0.381604

>  <SCORE.RESTR.CAVITY>
0.381604

>  <SCORE.RESTR.norm>
0.0165915

>  <SCORE.SYSTEM>
0

>  <SCORE.SYSTEM.CONST>
0

>  <SCORE.SYSTEM.DIHEDRAL>
0

>  <SCORE.SYSTEM.norm>
0

>  <SCORE.heavy>
23

>  <SCORE.norm>
-0.79007

$$$$
design_15
 OpenBabel05252019093D

 25 27  0  0  0  0  0  0  0  0999 V2000
   40.9200  -46.8781    4.8622 C   0  0  0  0  0  0  0  0  0  0  0  0
   40.1936  -47.2428    6.1206 C   0  0  0  0  0  0  0  0  0  0  0  0
   39.5443  -48.4584    6.2267 C   0  0  0  0  0  0  0  0  0  0  0  0
   38.9140  -48.6917    7.4223 C   0  0  0  0  0  0  0  0  0  0  0  0
   38.9020  -47.7988    8.4820 C   0  0  0  0  0  0  0  0  0  0  0  0
   39.5510  -46.6054    8.3518 C   0  0  0  0  0  0  0  0  0  0  0  0
   39.6412  -45.6258    9.3603 N   0  0  0  0  0  0  0  0  0  0  0  0
   40.5178  -44.5274    9.3004 C   0  0  0  0  0  0  0  0  0  0  0  0
   41.2972  -44.2813    8.3561 O   0  0  0  0  0  0  0  0  0  0  0  0
   40.5515  -43.5542   10.4254 C   0  0  0  0  0  0  0  0  0  0  0  0
   39.6221  -42.0863   10.0452 S   0  0  0  0  0  0  0  0  0  0  0  0
   39.7771  -41.5376    8.3751 C   0  0  0  0  0  0  0  0  0  0  0  0
   39.8596  -42.2734    7.2734 N   0  0  0  0  0  0  0  0  0  0  0  0
   39.9642  -41.5004    6.2093 N   0  0  0  0  0  0  0  0  0  0  0  0
   39.9510  -40.1863    6.6181 C   0  0  0  0  0  0  0  0  0  0  0  0
   40.0425  -39.0491    5.7183 C   0  0  0  0  0  0  0  0  0  0  0  0
   39.9063  -37.7451    6.0765 C   0  0  0  0  0  0  0  0  0  0  0  0
   39.9910  -36.6749    5.1923 C   0  0  0  0  0  0  0  0  0  0  0  0
   40.2268  -36.9502    3.8708 C   0  0  0  0  0  0  0  0  0  0  0  0
   40.3738  -38.2532    3.4454 C   0  0  0  0  0  0  0  0  0  0  0  0
   40.6241  -38.4681    2.0052 C   0  0  0  0  0  0  0  0  0  0  0  0
   40.2823  -39.2775    4.3557 C   0  0  0  0  0  0  0  0  0  0  0  0
   39.8365  -40.2538    7.9376 N   0  0  0  0  0  0  0  0  0  0  0  0
   39.7739  -39.1972    8.8397 N   0  0  0  0  0  0  0  0  0  0  0  0
   40.1997  -46.3371    7.1533 C   0  0  0  0  0  0  0  0  0  0  0  0
  1  2  1  0  0  0  0
  2  3  2  0  0  0  0
  3  4  1  0  0  0  0
  4  5  2  0  0  0  0
  5  6  1  0  0  0  0
  6  7  1  0  0  0  0
  6 25  2  0  0  0  0
  7  8  1  0  0  0  0
  8  9  2  0  0  0  0
  8 10  1  0  0  0  0
 10 11  1  0  0  0  0
 11 12  1  0  0  0  0
 12 13  2  0  0  0  0
 13 14  1  0  0  0  0
 14 15  2  0  0  0  0
 15 16  1  0  0  0  0
 15 23  1  0  0  0  0
 16 17  2  0  0  0  0
 17 18  1  0  0  0  0
 18 19  2  0  0  0  0
 19 20  1  0  0  0  0
 20 21  1  0  0  0  0
 20 22  2  0  0  0  0
 22 16  1  0  0  0  0
 23 24  1  0  0  0  0
 23 12  1  0  0  0  0
 25  2  1  0  0  0  0
M  END
>  <CHROM.1>
167.42095234,-100.49281473,-38.67757204,37.44893907,173.42598996,167.02222148
40.01002935,-42.51092188,7.07234157,-2.08223686,1.49393836,0.19332588

>  <Name>
design_15

>  <RI>
0

>  <Rbt.Current_Directory>
/home/ziqiaoxu/icml18-jtnn/VAEdesign

>  <Rbt.Executable>
rbdock ($Id: //depot/dev/client3/rdock/2013.1/src/exe/rbdock.cxx#4 $)

>  <Rbt.Library>
libRbt.so (2013.1, Build901 2013/11/27)

>  <Rbt.Parameter_File>
/export/apps/rDock/src/rDock_2013.1_src//data/scripts/dock.prm

>  <Rbt.Receptor>
/home/ziqiaoxu/icml18-jtnn/VAEdesign/targets/RdRp-SARS-CoV-2/pocket_docking.prm

>  <SCORE>
-28.1312

>  <SCORE.INTER>
-20.991

>  <SCORE.INTER.CONST>
1

>  <SCORE.INTER.POLAR>
-2.05441

>  <SCORE.INTER.REPUL>
0

>  <SCORE.INTER.ROT>
6

>  <SCORE.INTER.VDW>
-25.406

>  <SCORE.INTER.norm>
-0.839639

>  <SCORE.INTRA>
-7.14019

>  <SCORE.INTRA.DIHEDRAL>
-14.8285

>  <SCORE.INTRA.DIHEDRAL.0>
19.6944

>  <SCORE.INTRA.POLAR>
0

>  <SCORE.INTRA.POLAR.0>
0

>  <SCORE.INTRA.REPUL>
0

>  <SCORE.INTRA.REPUL.0>
0

>  <SCORE.INTRA.VDW>
0.274078

>  <SCORE.INTRA.VDW.0>
-1.36092

>  <SCORE.INTRA.norm>
-0.285608

>  <SCORE.RESTR>
0

>  <SCORE.RESTR.CAVITY>
0

>  <SCORE.RESTR.norm>
0

>  <SCORE.SYSTEM>
0

>  <SCORE.SYSTEM.CONST>
0

>  <SCORE.SYSTEM.DIHEDRAL>
0

>  <SCORE.SYSTEM.norm>
0

>  <SCORE.heavy>
25

>  <SCORE.norm>
-1.12525

$$$$
design_6
 OpenBabel05252019093D

 25 27  0  0  0  0  0  0  0  0999 V2000
   44.1587  -46.1524   -0.4606 C   0  0  0  0  0  0  0  0  0  0  0  0
   45.3196  -46.4690    0.2764 O   0  0  0  0  0  0  0  0  0  0  0  0
   45.3730  -46.1264    1.6183 C   0  0  0  0  0  0  0  0  0  0  0  0
   46.2612  -46.7209    2.4976 C   0  0  0  0  0  0  0  0  0  0  0  0
   46.3520  -46.4158    3.8270 C   0  0  0  0  0  0  0  0  0  0  0  0
   45.5034  -45.4420    4.3611 C   0  0  0  0  0  0  0  0  0  0  0  0
   45.6136  -45.1790    5.7276 N   0  0  0  0  0  0  0  0  0  0  0  0
   45.3312  -43.9143    6.3841 C   0  0  0  0  0  0  0  0  0  0  0  0
   44.9756  -43.0186    5.6179 O   0  0  0  0  0  0  0  0  0  0  0  0
   45.5107  -43.9065    7.8100 C   0  0  0  0  0  0  0  0  0  0  0  0
   44.4679  -43.7521    8.7973 C   0  0  0  0  0  0  0  0  0  0  0  0
   43.2602  -44.4569    8.8286 N   0  0  0  0  0  0  0  0  0  0  0  0
   42.6259  -45.3739    8.0042 C   0  0  0  0  0  0  0  0  0  0  0  0
   43.0220  -45.8152    6.9092 O   0  0  0  0  0  0  0  0  0  0  0  0
   41.3087  -45.9284    8.4223 C   0  0  0  0  0  0  0  0  0  0  0  0
   40.7259  -45.5895    9.6536 C   0  0  0  0  0  0  0  0  0  0  0  0
   39.6103  -46.3134    9.7531 N   0  0  0  0  0  0  0  0  0  0  0  0
   39.4460  -47.0820    8.6752 C   0  0  0  0  0  0  0  0  0  0  0  0
   38.4542  -47.9685    8.3316 C   0  0  0  0  0  0  0  0  0  0  0  0
   38.5292  -48.6219    7.1281 C   0  0  0  0  0  0  0  0  0  0  0  0
   39.5850  -48.3862    6.2854 C   0  0  0  0  0  0  0  0  0  0  0  0
   40.6035  -47.4895    6.6176 C   0  0  0  0  0  0  0  0  0  0  0  0
   40.5140  -46.8459    7.8261 C   0  0  0  0  0  0  0  0  0  0  0  0
   44.6328  -44.8660    3.4794 C   0  0  0  0  0  0  0  0  0  0  0  0
   44.5673  -45.1925    2.1591 N   0  0  0  0  0  0  0  0  0  0  0  0
  1  2  1  0  0  0  0
  2  3  1  0  0  0  0
  3  4  2  0  0  0  0
  4  5  1  0  0  0  0
  5  6  2  0  0  0  0
  6  7  1  0  0  0  0
  6 24  1  0  0  0  0
  7  8  1  0  0  0  0
  8  9  2  0  0  0  0
  8 10  1  0  0  0  0
 10 11  1  0  0  0  0
 11 12  1  0  0  0  0
 12 13  1  0  0  0  0
 13 14  2  0  0  0  0
 13 15  1  0  0  0  0
 15 16  2  0  0  0  0
 16 17  1  0  0  0  0
 17 18  1  0  0  0  0
 18 19  2  0  0  0  0
 19 20  1  0  0  0  0
 20 21  2  0  0  0  0
 21 22  1  0  0  0  0
 22 23  2  0  0  0  0
 23 15  1  0  0  0  0
 23 18  1  0  0  0  0
 24 25  2  0  0  0  0
 25  3  1  0  0  0  0
M  END
>  <CHROM.1>
160.61625322,150.92113907,-113.38422387,48.70830033,-5.06743773,-2.83029130
43.08703773,-45.84079691,5.89596573,0.73209061,-0.55084775,-1.93515763

>  <Name>
design_6

>  <RI>
0

>  <Rbt.Current_Directory>
/home/ziqiaoxu/icml18-jtnn/VAEdesign

>  <Rbt.Executable>
rbdock ($Id: //depot/dev/client3/rdock/2013.1/src/exe/rbdock.cxx#4 $)

>  <Rbt.Library>
libRbt.so (2013.1, Build901 2013/11/27)

>  <Rbt.Parameter_File>
/export/apps/rDock/src/rDock_2013.1_src//data/scripts/dock.prm

>  <Rbt.Receptor>
/home/ziqiaoxu/icml18-jtnn/VAEdesign/targets/RdRp-SARS-CoV-2/pocket_docking.prm

>  <SCORE>
-20.91

>  <SCORE.INTER>
-20.514

>  <SCORE.INTER.CONST>
1

>  <SCORE.INTER.POLAR>
-1.91423

>  <SCORE.INTER.REPUL>
0

>  <SCORE.INTER.ROT>
6

>  <SCORE.INTER.VDW>
-25.4056

>  <SCORE.INTER.norm>
-0.82056

>  <SCORE.INTRA>
-0.395955

>  <SCORE.INTRA.DIHEDRAL>
-0.981833

>  <SCORE.INTRA.DIHEDRAL.0>
9.05467

>  <SCORE.INTRA.POLAR>
0

>  <SCORE.INTRA.POLAR.0>
0

>  <SCORE.INTRA.REPUL>
0

>  <SCORE.INTRA.REPUL.0>
0

>  <SCORE.INTRA.VDW>
0.0949616

>  <SCORE.INTRA.VDW.0>
-1.10164

>  <SCORE.INTRA.norm>
-0.0158382

>  <SCORE.RESTR>
0

>  <SCORE.RESTR.CAVITY>
0

>  <SCORE.RESTR.norm>
0

>  <SCORE.SYSTEM>
0

>  <SCORE.SYSTEM.CONST>
0

>  <SCORE.SYSTEM.DIHEDRAL>
0

>  <SCORE.SYSTEM.norm>
0

>  <SCORE.heavy>
25

>  <SCORE.norm>
-0.836398

$$$$
design_13
 OpenBabel05252019093D

 29 32  0  0  0  0  0  0  0  0999 V2000
   39.0969  -48.5548    7.1924 C   0  0  0  0  0  0  0  0  0  0  0  0
   39.1245  -47.2633    7.9262 C   0  0  0  0  0  0  0  0  0  0  0  0
   38.8567  -47.0640    9.2286 N   0  0  0  0  0  0  0  0  0  0  0  0
   38.9852  -45.7525    9.5229 N   0  0  0  0  0  0  0  0  0  0  0  0
   39.3357  -45.1246    8.4051 C   0  0  0  0  0  0  0  0  0  0  0  0
   39.5775  -43.6812    8.2838 C   0  0  0  0  0  0  0  0  0  0  0  0
   39.8653  -43.0126    7.1400 C   0  0  0  0  0  0  0  0  0  0  0  0
   40.0435  -41.6164    7.1684 C   0  0  0  0  0  0  0  0  0  0  0  0
   39.9432  -40.8806    8.2889 C   0  0  0  0  0  0  0  0  0  0  0  0
   40.0854  -39.4260    8.4464 C   0  0  0  0  0  0  0  0  0  0  0  0
   39.9985  -38.6248    7.3401 N   0  0  0  0  0  0  0  0  0  0  0  0
   39.9149  -37.8523    6.2779 C   0  0  0  0  0  0  0  0  0  0  0  0
   39.6628  -36.5712    6.1016 O   0  0  0  0  0  0  0  0  0  0  0  0
   40.1624  -38.5081    4.9611 N   0  0  0  0  0  0  0  0  0  0  0  0
   40.2132  -37.7222    3.7776 C   0  0  0  0  0  0  0  0  0  0  0  0
   41.2066  -38.2899    2.8177 C   0  0  0  0  0  0  0  0  0  0  0  0
   42.2041  -37.4274    2.3447 C   0  0  0  0  0  0  0  0  0  0  0  0
   43.1420  -37.8793    1.4552 C   0  0  0  0  0  0  0  0  0  0  0  0
   44.0614  -37.1041    1.0094 O   0  0  0  0  0  0  0  0  0  0  0  0
   43.1564  -39.1674    0.9916 C   0  0  0  0  0  0  0  0  0  0  0  0
   44.1309  -39.5639    0.0919 C   0  0  0  0  0  0  0  0  0  0  0  0
   44.0873  -40.8762   -0.3276 C   0  0  0  0  0  0  0  0  0  0  0  0
   43.1151  -41.7481    0.1285 C   0  0  0  0  0  0  0  0  0  0  0  0
   42.1633  -41.2986    1.0266 C   0  0  0  0  0  0  0  0  0  0  0  0
   42.1658  -40.0006    1.4703 C   0  0  0  0  0  0  0  0  0  0  0  0
   41.2292  -39.5295    2.3624 N   0  0  0  0  0  0  0  0  0  0  0  0
   39.6433  -41.5852    9.4787 C   0  0  0  0  0  0  0  0  0  0  0  0
   39.4716  -42.9264    9.4482 C   0  0  0  0  0  0  0  0  0  0  0  0
   39.4200  -46.0509    7.4257 N   0  0  0  0  0  0  0  0  0  0  0  0
  1  2  1  0  0  0  0
  2  3  2  0  0  0  0
  3  4  1  0  0  0  0
  4  5  1  0  0  0  0
  5  6  1  0  0  0  0
  5 29  2  0  0  0  0
  6  7  2  0  0  0  0
  7  8  1  0  0  0  0
  8  9  2  0  0  0  0
  9 10  1  0  0  0  0
  9 27  1  0  0  0  0
 10 11  1  0  0  0  0
 11 12  1  0  0  0  0
 12 13  2  0  0  0  0
 12 14  1  0  0  0  0
 14 15  1  0  0  0  0
 15 16  1  0  0  0  0
 16 17  2  0  0  0  0
 17 18  1  0  0  0  0
 18 19  2  0  0  0  0
 18 20  1  0  0  0  0
 20 21  2  0  0  0  0
 21 22  1  0  0  0  0
 22 23  2  0  0  0  0
 23 24  1  0  0  0  0
 24 25  2  0  0  0  0
 25 26  1  0  0  0  0
 25 20  1  0  0  0  0
 26 16  1  0  0  0  0
 27 28  2  0  0  0  0
 28  6  1  0  0  0  0
 29  2  1  0  0  0  0
M  END
>  <CHROM.1>
-176.22421754,17.29400782,170.67576687,145.66537411,-125.79325177,40.80718400
-41.18505840,5.19689784,-2.46023401,1.12718977,0.02359147

>  <Name>
design_13

>  <RI>
0

>  <Rbt.Current_Directory>
/home/ziqiaoxu/icml18-jtnn/VAEdesign

>  <Rbt.Executable>
rbdock ($Id: //depot/dev/client3/rdock/2013.1/src/exe/rbdock.cxx#4 $)

>  <Rbt.Library>
libRbt.so (2013.1, Build901 2013/11/27)

>  <Rbt.Parameter_File>
/export/apps/rDock/src/rDock_2013.1_src//data/scripts/dock.prm

>  <Rbt.Receptor>
/home/ziqiaoxu/icml18-jtnn/VAEdesign/targets/RdRp-SARS-CoV-2/pocket_docking.prm

>  <SCORE>
-24.9482

>  <SCORE.INTER>
-25.0267

>  <SCORE.INTER.CONST>
1

>  <SCORE.INTER.POLAR>
-2.94772

>  <SCORE.INTER.REPUL>
0

>  <SCORE.INTER.ROT>
5

>  <SCORE.INTER.VDW>
-25.4045

>  <SCORE.INTER.norm>
-0.862991

>  <SCORE.INTRA>
0.0768613

>  <SCORE.INTRA.DIHEDRAL>
0.0996465

>  <SCORE.INTRA.DIHEDRAL.0>
2.68761

>  <SCORE.INTRA.POLAR>
0

>  <SCORE.INTRA.POLAR.0>
0

>  <SCORE.INTRA.REPUL>
0

>  <SCORE.INTRA.REPUL.0>
0

>  <SCORE.INTRA.VDW>
0.0270381

>  <SCORE.INTRA.VDW.0>
-1.93956

>  <SCORE.INTRA.norm>
0.00265039

>  <SCORE.RESTR>
0.00163625

>  <SCORE.RESTR.CAVITY>
0.00163625

>  <SCORE.RESTR.norm>
5.64224e-05

>  <SCORE.SYSTEM>
0

>  <SCORE.SYSTEM.CONST>
0

>  <SCORE.SYSTEM.DIHEDRAL>
0

>  <SCORE.SYSTEM.norm>
0

>  <SCORE.heavy>
29

>  <SCORE.norm>
-0.860284

$$$$
design_2
 OpenBabel05252019093D

 19 20  0  0  0  0  0  0  0  0999 V2000
   41.8148  -44.3393   10.5577 C   0  0  0  0  0  0  0  0  0  0  0  0
   41.2054  -45.2474    9.5436 C   0  0  0  0  0  0  0  0  0  0  0  0
   41.8967  -45.6977    8.4445 C   0  0  0  0  0  0  0  0  0  0  0  0
   41.2865  -46.5353    7.5381 C   0  0  0  0  0  0  0  0  0  0  0  0
   39.9782  -46.9592    7.6790 C   0  0  0  0  0  0  0  0  0  0  0  0
   39.2231  -48.0259    6.5205 S   0  0  0  0  0  0  0  0  0  0  0  0
   40.2528  -48.3482    5.4670 O   0  0  0  0  0  0  0  0  0  0  0  0
   38.9772  -49.3382    7.2419 O   0  0  0  0  0  0  0  0  0  0  0  0
   37.7733  -47.4471    5.8635 N   0  0  0  0  0  0  0  0  0  0  0  0
   37.3112  -46.1080    5.8425 C   0  0  0  0  0  0  0  0  0  0  0  0
   36.0475  -45.7492    5.4433 C   0  0  0  0  0  0  0  0  0  0  0  0
   35.6258  -44.4152    5.4368 C   0  0  0  0  0  0  0  0  0  0  0  0
   36.4660  -43.4024    5.8328 C   0  0  0  0  0  0  0  0  0  0  0  0
   35.8992  -41.7439    5.8101 Cl  0  0  0  0  0  0  0  0  0  0  0  0
   37.7383  -43.7412    6.2369 C   0  0  0  0  0  0  0  0  0  0  0  0
   38.1483  -45.0550    6.2415 C   0  0  0  0  0  0  0  0  0  0  0  0
   39.2915  -46.4894    8.8049 C   0  0  0  0  0  0  0  0  0  0  0  0
   37.6178  -46.9887    9.0505 Cl  0  0  0  0  0  0  0  0  0  0  0  0
   39.9096  -45.6510    9.7079 C   0  0  0  0  0  0  0  0  0  0  0  0
  1  2  1  0  0  0  0
  2  3  2  0  0  0  0
  3  4  1  0  0  0  0
  4  5  2  0  0  0  0
  5  6  1  0  0  0  0
  5 17  1  0  0  0  0
  6  7  2  0  0  0  0
  6  8  2  0  0  0  0
  6  9  1  0  0  0  0
  9 10  1  0  0  0  0
 10 11  2  0  0  0  0
 11 12  1  0  0  0  0
 12 13  2  0  0  0  0
 13 14  1  0  0  0  0
 13 15  1  0  0  0  0
 15 16  2  0  0  0  0
 16 10  1  0  0  0  0
 17 18  1  0  0  0  0
 17 19  2  0  0  0  0
 19  2  1  0  0  0  0
M  END
>  <CHROM.1>
0.97590672,19.17906334,-171.29002463,38.53066550,-45.83839718,7.20096356
-0.49294104,-0.71124612,0.32068838

>  <Name>
design_2

>  <RI>
0

>  <Rbt.Current_Directory>
/home/ziqiaoxu/icml18-jtnn/VAEdesign

>  <Rbt.Executable>
rbdock ($Id: //depot/dev/client3/rdock/2013.1/src/exe/rbdock.cxx#4 $)

>  <Rbt.Library>
libRbt.so (2013.1, Build901 2013/11/27)

>  <Rbt.Parameter_File>
/export/apps/rDock/src/rDock_2013.1_src//data/scripts/dock.prm

>  <Rbt.Receptor>
/home/ziqiaoxu/icml18-jtnn/VAEdesign/targets/RdRp-SARS-CoV-2/pocket_docking.prm

>  <SCORE>
-20.4245

>  <SCORE.INTER>
-17.003

>  <SCORE.INTER.CONST>
1

>  <SCORE.INTER.POLAR>
0

>  <SCORE.INTER.REPUL>
0

>  <SCORE.INTER.ROT>
3

>  <SCORE.INTER.VDW>
-25.403

>  <SCORE.INTER.norm>
-0.894892

>  <SCORE.INTRA>
-3.42153

>  <SCORE.INTRA.DIHEDRAL>
-6.11923

>  <SCORE.INTRA.DIHEDRAL.0>
8.80981

>  <SCORE.INTRA.POLAR>
0

>  <SCORE.INTRA.POLAR.0>
0

>  <SCORE.INTRA.REPUL>
0

>  <SCORE.INTRA.REPUL.0>
0

>  <SCORE.INTRA.VDW>
-0.361916

>  <SCORE.INTRA.VDW.0>
-2.67539

>  <SCORE.INTRA.norm>
-0.180081

>  <SCORE.RESTR>
0

>  <SCORE.RESTR.CAVITY>
0

>  <SCORE.RESTR.norm>
0

>  <SCORE.SYSTEM>
0

>  <SCORE.SYSTEM.CONST>
0

>  <SCORE.SYSTEM.DIHEDRAL>
0

>  <SCORE.SYSTEM.norm>
0

>  <SCORE.heavy>
19

>  <SCORE.norm>
-1.07497

$$$$
design_3
 OpenBabel05252019093D

 27 29  0  0  0  0  0  0  0  0999 V2000
   46.6565  -43.3902    8.2420 C   0  0  0  0  0  0  0  0  0  0  0  0
   47.1471  -43.7790    6.9045 C   0  0  0  0  0  0  0  0  0  0  0  0
   48.3030  -43.2105    6.4179 C   0  0  0  0  0  0  0  0  0  0  0  0
   48.7419  -43.5866    5.1667 C   0  0  0  0  0  0  0  0  0  0  0  0
   48.0411  -44.5073    4.4223 C   0  0  0  0  0  0  0  0  0  0  0  0
   46.8788  -45.0915    4.8873 C   0  0  0  0  0  0  0  0  0  0  0  0
   46.1353  -46.0564    4.0625 C   0  0  0  0  0  0  0  0  0  0  0  0
   45.2881  -45.2885    3.0496 C   0  0  0  0  0  0  0  0  0  0  0  0
   47.0117  -47.0226    3.3228 C   0  0  0  0  0  0  0  0  0  0  0  0
   46.4471  -44.7123    6.1373 C   0  0  0  0  0  0  0  0  0  0  0  0
   45.2332  -45.2182    6.7345 N   0  0  0  0  0  0  0  0  0  0  0  0
   44.1344  -44.3533    6.9460 C   0  0  0  0  0  0  0  0  0  0  0  0
   44.1814  -43.1250    6.6111 O   0  0  0  0  0  0  0  0  0  0  0  0
   42.9182  -44.8681    7.5590 C   0  0  0  0  0  0  0  0  0  0  0  0
   42.4178  -46.0941    7.2112 C   0  0  0  0  0  0  0  0  0  0  0  0
   41.2495  -46.5417    7.8237 C   0  0  0  0  0  0  0  0  0  0  0  0
   40.5716  -45.8042    8.7675 C   0  0  0  0  0  0  0  0  0  0  0  0
   39.3711  -46.3043    9.3729 N   0  0  0  0  0  0  0  0  0  0  0  0
   38.6742  -47.3688    8.6915 C   0  0  0  0  0  0  0  0  0  0  0  0
   37.9760  -46.8566    7.4750 C   0  0  0  0  0  0  0  0  0  0  0  0
   37.9811  -47.6132    6.3149 C   0  0  0  0  0  0  0  0  0  0  0  0
   37.3407  -47.1524    5.1849 C   0  0  0  0  0  0  0  0  0  0  0  0
   36.6893  -45.9310    5.2030 C   0  0  0  0  0  0  0  0  0  0  0  0
   36.7009  -45.1993    6.3722 C   0  0  0  0  0  0  0  0  0  0  0  0
   37.3279  -45.6682    7.4512 N   0  0  0  0  0  0  0  0  0  0  0  0
   41.0768  -44.5560    9.1250 C   0  0  0  0  0  0  0  0  0  0  0  0
   42.2316  -44.1121    8.5202 C   0  0  0  0  0  0  0  0  0  0  0  0
  1  2  1  0  0  0  0
  2  3  2  0  0  0  0
  3  4  1  0  0  0  0
  4  5  2  0  0  0  0
  5  6  1  0  0  0  0
  6  7  1  0  0  0  0
  6 10  2  0  0  0  0
  7  8  1  0  0  0  0
  7  9  1  0  0  0  0
 10 11  1  0  0  0  0
 10  2  1  0  0  0  0
 11 12  1  0  0  0  0
 12 13  2  0  0  0  0
 12 14  1  0  0  0  0
 14 15  2  0  0  0  0
 15 16  1  0  0  0  0
 16 17  2  0  0  0  0
 17 18  1  0  0  0  0
 17 26  1  0  0  0  0
 18 19  1  0  0  0  0
 19 20  1  0  0  0  0
 20 21  2  0  0  0  0
 21 22  1  0  0  0  0
 22 23  2  0  0  0  0
 23 24  1  0  0  0  0
 24 25  2  0  0  0  0
 25 20  1  0  0  0  0
 26 27  2  0  0  0  0
 27 14  1  0  0  0  0
M  END
>  <CHROM.1>
-80.44371305,66.18293743,-41.57513828,-18.99140090,-73.36298521,139.77602603
42.86029666,-45.31026093,6.58354071,-0.10259551,0.25937353,1.17647342

>  <Name>
design_3

>  <RI>
0

>  <Rbt.Current_Directory>
/home/ziqiaoxu/icml18-jtnn/VAEdesign

>  <Rbt.Executable>
rbdock ($Id: //depot/dev/client3/rdock/2013.1/src/exe/rbdock.cxx#4 $)

>  <Rbt.Library>
libRbt.so (2013.1, Build901 2013/11/27)

>  <Rbt.Parameter_File>
/export/apps/rDock/src/rDock_2013.1_src//data/scripts/dock.prm

>  <Rbt.Receptor>
/home/ziqiaoxu/icml18-jtnn/VAEdesign/targets/RdRp-SARS-CoV-2/pocket_docking.prm

>  <SCORE>
-20.575

>  <SCORE.INTER>
-19.5155

>  <SCORE.INTER.CONST>
1

>  <SCORE.INTER.POLAR>
-1.64763

>  <SCORE.INTER.REPUL>
0.0175803

>  <SCORE.INTER.ROT>
6

>  <SCORE.INTER.VDW>
-25.4015

>  <SCORE.INTER.norm>
-0.722798

>  <SCORE.INTRA>
-1.05947

>  <SCORE.INTRA.DIHEDRAL>
5.34638

>  <SCORE.INTRA.DIHEDRAL.0>
16.3144

>  <SCORE.INTRA.POLAR>
0

>  <SCORE.INTRA.POLAR.0>
0

>  <SCORE.INTRA.REPUL>
0

>  <SCORE.INTRA.REPUL.0>
0

>  <SCORE.INTRA.VDW>
-3.73266

>  <SCORE.INTRA.VDW.0>
3.66194

>  <SCORE.INTRA.norm>
-0.0392397

>  <SCORE.RESTR>
0

>  <SCORE.RESTR.CAVITY>
0

>  <SCORE.RESTR.norm>
0

>  <SCORE.SYSTEM>
0

>  <SCORE.SYSTEM.CONST>
0

>  <SCORE.SYSTEM.DIHEDRAL>
0

>  <SCORE.SYSTEM.norm>
0

>  <SCORE.heavy>
27

>  <SCORE.norm>
-0.762037

$$$$
design_13
 OpenBabel05252019093D

 25 28  0  0  0  0  0  0  0  0999 V2000
   40.0155  -37.3211    2.5822 C   0  0  0  0  0  0  0  0  0  0  0  0
   39.8163  -37.4379    4.0482 C   0  0  0  0  0  0  0  0  0  0  0  0
   39.4632  -36.4051    4.8594 N   0  0  0  0  0  0  0  0  0  0  0  0
   39.3815  -36.8783    6.0773 N   0  0  0  0  0  0  0  0  0  0  0  0
   39.6668  -38.1923    6.1157 C   0  0  0  0  0  0  0  0  0  0  0  0
   39.6845  -39.0710    7.2794 C   0  0  0  0  0  0  0  0  0  0  0  0
   38.8685  -40.1965    7.2823 C   0  0  0  0  0  0  0  0  0  0  0  0
   38.8508  -41.0658    8.3513 C   0  0  0  0  0  0  0  0  0  0  0  0
   39.6471  -40.8521    9.4670 C   0  0  0  0  0  0  0  0  0  0  0  0
   39.6123  -41.8171   10.6215 C   0  0  0  0  0  0  0  0  0  0  0  0
   39.3582  -43.1641   10.1308 N   0  0  0  0  0  0  0  0  0  0  0  0
   40.1633  -43.6648    9.0896 C   0  0  0  0  0  0  0  0  0  0  0  0
   41.0773  -42.9538    8.6143 O   0  0  0  0  0  0  0  0  0  0  0  0
   39.9007  -45.0206    8.5873 C   0  0  0  0  0  0  0  0  0  0  0  0
   40.4917  -45.6171    7.4935 C   0  0  0  0  0  0  0  0  0  0  0  0
   40.0116  -46.8933    7.3093 C   0  0  0  0  0  0  0  0  0  0  0  0
   40.2439  -47.9071    6.4056 C   0  0  0  0  0  0  0  0  0  0  0  0
   39.5873  -49.1097    6.4843 C   0  0  0  0  0  0  0  0  0  0  0  0
   38.6569  -49.3136    7.5093 C   0  0  0  0  0  0  0  0  0  0  0  0
   38.4445  -48.2848    8.3983 C   0  0  0  0  0  0  0  0  0  0  0  0
   39.0898  -47.0704    8.3402 C   0  0  0  0  0  0  0  0  0  0  0  0
   39.0468  -45.9370    9.0843 N   0  0  0  0  0  0  0  0  0  0  0  0
   40.4532  -39.7437    9.4688 C   0  0  0  0  0  0  0  0  0  0  0  0
   40.4701  -38.8654    8.3880 C   0  0  0  0  0  0  0  0  0  0  0  0
   39.9348  -38.5184    4.8381 N   0  0  0  0  0  0  0  0  0  0  0  0
  1  2  1  0  0  0  0
  2  3  2  0  0  0  0
  3  4  1  0  0  0  0
  4  5  1  0  0  0  0
  5  6  1  0  0  0  0
  5 25  2  0  0  0  0
  6  7  2  0  0  0  0
  7  8  1  0  0  0  0
  8  9  2  0  0  0  0
  9 10  1  0  0  0  0
  9 23  1  0  0  0  0
 10 11  1  0  0  0  0
 11 12  1  0  0  0  0
 12 13  2  0  0  0  0
 12 14  1  0  0  0  0
 14 15  2  0  0  0  0
 15 16  1  0  0  0  0
 16 17  2  0  0  0  0
 17 18  1  0  0  0  0
 18 19  2  0  0  0  0
 19 20  1  0  0  0  0
 20 21  2  0  0  0  0
 21 22  1  0  0  0  0
 21 16  1  0  0  0  0
 22 14  1  0  0  0  0
 23 24  2  0  0  0  0
 24  6  1  0  0  0  0
 25  2  1  0  0  0  0
M  END
>  <CHROM.1>
122.37801083,32.53764238,51.48808868,172.94351857,39.67782086,-42.38930113
7.46980671,0.37849092,-1.53715431,-1.42561105

>  <Name>
design_13

>  <RI>
0

>  <Rbt.Current_Directory>
/home/ziqiaoxu/icml18-jtnn/VAEdesign

>  <Rbt.Executable>
rbdock ($Id: //depot/dev/client3/rdock/2013.1/src/exe/rbdock.cxx#4 $)

>  <Rbt.Library>
libRbt.so (2013.1, Build901 2013/11/27)

>  <Rbt.Parameter_File>
/export/apps/rDock/src/rDock_2013.1_src//data/scripts/dock.prm

>  <Rbt.Receptor>
/home/ziqiaoxu/icml18-jtnn/VAEdesign/targets/RdRp-SARS-CoV-2/pocket_docking.prm

>  <SCORE>
-20.4515

>  <SCORE.INTER>
-25.8529

>  <SCORE.INTER.CONST>
1

>  <SCORE.INTER.POLAR>
-2.89803

>  <SCORE.INTER.REPUL>
0

>  <SCORE.INTER.ROT>
4

>  <SCORE.INTER.VDW>
-25.3996

>  <SCORE.INTER.norm>
-1.03412

>  <SCORE.INTRA>
5.39793

>  <SCORE.INTRA.DIHEDRAL>
9.33296

>  <SCORE.INTRA.DIHEDRAL.0>
1.93431

>  <SCORE.INTRA.POLAR>
0

>  <SCORE.INTRA.POLAR.0>
0

>  <SCORE.INTRA.REPUL>
0

>  <SCORE.INTRA.REPUL.0>
0

>  <SCORE.INTRA.VDW>
0.73145

>  <SCORE.INTRA.VDW.0>
-1.99663

>  <SCORE.INTRA.norm>
0.215917

>  <SCORE.RESTR>
0.00350399

>  <SCORE.RESTR.CAVITY>
0.00350399

>  <SCORE.RESTR.norm>
0.000140159

>  <SCORE.SYSTEM>
0

>  <SCORE.SYSTEM.CONST>
0

>  <SCORE.SYSTEM.DIHEDRAL>
0

>  <SCORE.SYSTEM.norm>
0

>  <SCORE.heavy>
25

>  <SCORE.norm>
-0.818059

$$$$
design_1
 OpenBabel05252019093D

 25 27  0  0  0  0  0  0  0  0999 V2000
   43.6565  -42.6797    1.8849 O   0  0  0  0  0  0  0  0  0  0  0  0
   42.4225  -42.9468    1.7831 C   0  0  0  0  0  0  0  0  0  0  0  0
   41.9814  -44.2979    1.8696 N   0  0  0  0  0  0  0  0  0  0  0  0
   42.9458  -45.3487    2.0971 C   0  0  0  0  0  0  0  0  0  0  0  0
   43.1991  -45.6720    3.5264 C   0  0  0  0  0  0  0  0  0  0  0  0
   42.0910  -46.3128    4.2113 N   0  0  0  0  0  0  0  0  0  0  0  0
   42.0489  -46.3122    5.6217 C   0  0  0  0  0  0  0  0  0  0  0  0
   43.0113  -45.7971    6.3034 O   0  0  0  0  0  0  0  0  0  0  0  0
   40.9410  -46.8806    6.3597 C   0  0  0  0  0  0  0  0  0  0  0  0
   40.1129  -47.8176    5.8328 C   0  0  0  0  0  0  0  0  0  0  0  0
   39.0405  -48.3257    6.5701 C   0  0  0  0  0  0  0  0  0  0  0  0
   38.8606  -47.8411    7.8398 C   0  0  0  0  0  0  0  0  0  0  0  0
   39.6777  -46.9017    8.3919 C   0  0  0  0  0  0  0  0  0  0  0  0
   39.4259  -46.4944    9.7036 C   0  0  0  0  0  0  0  0  0  0  0  0
   40.2471  -45.5773   10.2833 C   0  0  0  0  0  0  0  0  0  0  0  0
   41.2914  -45.0892    9.5556 C   0  0  0  0  0  0  0  0  0  0  0  0
   41.5452  -45.4953    8.2418 C   0  0  0  0  0  0  0  0  0  0  0  0
   40.7160  -46.4232    7.6503 C   0  0  0  0  0  0  0  0  0  0  0  0
   41.5591  -41.8453    1.5902 N   0  0  0  0  0  0  0  0  0  0  0  0
   42.0709  -40.4849    1.5129 C   0  0  0  0  0  0  0  0  0  0  0  0
   41.1010  -39.5167    0.9555 C   0  0  0  0  0  0  0  0  0  0  0  0
   40.6110  -38.4875    1.9288 C   0  0  0  0  0  0  0  0  0  0  0  0
   41.6581  -37.8572    2.7823 C   0  0  0  0  0  0  0  0  0  0  0  0
   42.9575  -38.5912    2.8419 C   0  0  0  0  0  0  0  0  0  0  0  0
   42.6540  -40.0593    2.8476 C   0  0  0  0  0  0  0  0  0  0  0  0
  1  2  2  0  0  0  0
  2  3  1  0  0  0  0
  2 19  1  0  0  0  0
  3  4  1  0  0  0  0
  4  5  1  0  0  0  0
  5  6  1  0  0  0  0
  6  7  1  0  0  0  0
  7  8  2  0  0  0  0
  7  9  1  0  0  0  0
  9 10  2  0  0  0  0
 10 11  1  0  0  0  0
 11 12  2  0  0  0  0
 12 13  1  0  0  0  0
 13 14  2  0  0  0  0
 14 15  1  0  0  0  0
 15 16  2  0  0  0  0
 16 17  1  0  0  0  0
 17 18  2  0  0  0  0
 18  9  1  0  0  0  0
 18 13  1  0  0  0  0
 19 20  1  0  0  0  0
 20 21  1  0  0  0  0
 21 22  1  0  0  0  0
 22 23  1  0  0  0  0
 23 24  1  0  0  0  0
 24 25  1  0  0  0  0
 25 20  1  0  0  0  0
M  END
>  <CHROM.1>
90.23932798,69.22586918,-161.45858068,22.57002718,164.46783401,41.48518173
-44.03168762,4.76306373,-0.97831565,-1.23103118,2.97231516

>  <Name>
design_1

>  <RI>
0

>  <Rbt.Current_Directory>
/home/ziqiaoxu/icml18-jtnn/VAEdesign

>  <Rbt.Executable>
rbdock ($Id: //depot/dev/client3/rdock/2013.1/src/exe/rbdock.cxx#4 $)

>  <Rbt.Library>
libRbt.so (2013.1, Build901 2013/11/27)

>  <Rbt.Parameter_File>
/export/apps/rDock/src/rDock_2013.1_src//data/scripts/dock.prm

>  <Rbt.Receptor>
/home/ziqiaoxu/icml18-jtnn/VAEdesign/targets/RdRp-SARS-CoV-2/pocket_docking.prm

>  <SCORE>
-21.8712

>  <SCORE.INTER>
-21.2876

>  <SCORE.INTER.CONST>
1

>  <SCORE.INTER.POLAR>
-1.86902

>  <SCORE.INTER.REPUL>
0.0127668

>  <SCORE.INTER.ROT>
5

>  <SCORE.INTER.VDW>
-25.3968

>  <SCORE.INTER.norm>
-0.851505

>  <SCORE.INTRA>
-0.583616

>  <SCORE.INTRA.DIHEDRAL>
-8.61656

>  <SCORE.INTRA.DIHEDRAL.0>
14.5036

>  <SCORE.INTRA.POLAR>
0

>  <SCORE.INTRA.POLAR.0>
0

>  <SCORE.INTRA.REPUL>
0

>  <SCORE.INTRA.REPUL.0>
0

>  <SCORE.INTRA.VDW>
3.72467

>  <SCORE.INTRA.VDW.0>
-2.15055

>  <SCORE.INTRA.norm>
-0.0233446

>  <SCORE.RESTR>
0

>  <SCORE.RESTR.CAVITY>
0

>  <SCORE.RESTR.norm>
0

>  <SCORE.SYSTEM>
0

>  <SCORE.SYSTEM.CONST>
0

>  <SCORE.SYSTEM.DIHEDRAL>
0

>  <SCORE.SYSTEM.norm>
0

>  <SCORE.heavy>
25

>  <SCORE.norm>
-0.87485

$$$$
design_5
 OpenBabel05252019093D

 24 25  0  0  0  0  0  0  0  0999 V2000
   39.5594  -42.7464   10.5073 C   0  0  0  0  0  0  0  0  0  0  0  0
   40.6162  -43.7900   10.6802 C   0  0  0  0  0  0  0  0  0  0  0  0
   40.5865  -44.6855    9.4651 C   0  0  0  0  0  0  0  0  0  0  0  0
   41.3311  -44.4482    8.5087 O   0  0  0  0  0  0  0  0  0  0  0  0
   39.6941  -45.7695    9.4808 N   0  0  0  0  0  0  0  0  0  0  0  0
   39.5315  -46.7155    8.4458 C   0  0  0  0  0  0  0  0  0  0  0  0
   38.8341  -47.8886    8.5641 C   0  0  0  0  0  0  0  0  0  0  0  0
   38.7399  -48.7919    7.4992 C   0  0  0  0  0  0  0  0  0  0  0  0
   39.3816  -48.4673    6.2932 C   0  0  0  0  0  0  0  0  0  0  0  0
   40.0835  -47.3103    6.1384 C   0  0  0  0  0  0  0  0  0  0  0  0
   40.7409  -46.9668    4.9407 N   0  0  0  0  0  0  0  0  0  0  0  0
   41.9527  -46.3204    4.7386 C   0  0  0  0  0  0  0  0  0  0  0  0
   42.7083  -45.9069    5.6415 O   0  0  0  0  0  0  0  0  0  0  0  0
   42.4262  -46.0806    3.4002 N   0  0  0  0  0  0  0  0  0  0  0  0
   43.6451  -45.4204    3.0917 C   0  0  0  0  0  0  0  0  0  0  0  0
   44.1686  -45.7629    1.7621 C   0  0  0  0  0  0  0  0  0  0  0  0
   43.4895  -45.6853    0.5790 C   0  0  0  0  0  0  0  0  0  0  0  0
   44.0524  -46.0566   -0.6219 C   0  0  0  0  0  0  0  0  0  0  0  0
   45.3349  -46.5287   -0.6942 C   0  0  0  0  0  0  0  0  0  0  0  0
   46.0489  -46.6225    0.4709 C   0  0  0  0  0  0  0  0  0  0  0  0
   45.4813  -46.2495    1.6683 C   0  0  0  0  0  0  0  0  0  0  0  0
   46.2498  -46.3459    2.9516 C   0  0  0  0  0  0  0  0  0  0  0  0
   46.6030  -47.6530    3.2148 O   0  0  0  0  0  0  0  0  0  0  0  0
   40.1569  -46.4366    7.2155 C   0  0  0  0  0  0  0  0  0  0  0  0
  1  2  1  0  0  0  0
  2  3  1  0  0  0  0
  3  4  2  0  0  0  0
  3  5  1  0  0  0  0
  5  6  1  0  0  0  0
  6  7  2  0  0  0  0
  7  8  1  0  0  0  0
  8  9  2  0  0  0  0
  9 10  1  0  0  0  0
 10 11  1  0  0  0  0
 10 24  2  0  0  0  0
 11 12  1  0  0  0  0
 12 13  2  0  0  0  0
 12 14  1  0  0  0  0
 14 15  1  0  0  0  0
 15 16  1  0  0  0  0
 16 17  2  0  0  0  0
 17 18  1  0  0  0  0
 18 19  2  0  0  0  0
 19 20  1  0  0  0  0
 20 21  2  0  0  0  0
 21 22  1  0  0  0  0
 21 16  1  0  0  0  0
 22 23  1  0  0  0  0
 24  6  1  0  0  0  0
M  END
>  <CHROM.1>
93.45133445,168.14789446,-142.83323332,156.65018440,52.95308291,118.33345694
-61.41920925,42.16478372,-46.16851560,5.22010132,-2.34208966,-0.65399693
-2.20286270

>  <Name>
design_5

>  <RI>
0

>  <Rbt.Current_Directory>
/home/ziqiaoxu/icml18-jtnn/VAEdesign

>  <Rbt.Executable>
rbdock ($Id: //depot/dev/client3/rdock/2013.1/src/exe/rbdock.cxx#4 $)

>  <Rbt.Library>
libRbt.so (2013.1, Build901 2013/11/27)

>  <Rbt.Parameter_File>
/export/apps/rDock/src/rDock_2013.1_src//data/scripts/dock.prm

>  <Rbt.Receptor>
/home/ziqiaoxu/icml18-jtnn/VAEdesign/targets/RdRp-SARS-CoV-2/pocket_docking.prm

>  <SCORE>
-27.4392

>  <SCORE.INTER>
-23.7432

>  <SCORE.INTER.CONST>
1

>  <SCORE.INTER.POLAR>
-2.86684

>  <SCORE.INTER.REPUL>
0

>  <SCORE.INTER.ROT>
6

>  <SCORE.INTER.VDW>
-25.3959

>  <SCORE.INTER.norm>
-0.9893

>  <SCORE.INTRA>
-3.69602

>  <SCORE.INTRA.DIHEDRAL>
-1.72155

>  <SCORE.INTRA.DIHEDRAL.0>
11.2248

>  <SCORE.INTRA.POLAR>
0

>  <SCORE.INTRA.POLAR.0>
0

>  <SCORE.INTRA.REPUL>
0

>  <SCORE.INTRA.REPUL.0>
0

>  <SCORE.INTRA.VDW>
-2.83525

>  <SCORE.INTRA.VDW.0>
1.58649

>  <SCORE.INTRA.norm>
-0.154001

>  <SCORE.RESTR>
0

>  <SCORE.RESTR.CAVITY>
0

>  <SCORE.RESTR.norm>
0

>  <SCORE.SYSTEM>
0

>  <SCORE.SYSTEM.CONST>
0

>  <SCORE.SYSTEM.DIHEDRAL>
0

>  <SCORE.SYSTEM.norm>
0

>  <SCORE.heavy>
24

>  <SCORE.norm>
-1.1433

$$$$
design_7
 OpenBabel05252019093D

 25 27  0  0  0  0  0  0  0  0999 V2000
   45.1436  -45.4136   15.1017 C   0  0  0  0  0  0  0  0  0  0  0  0
   45.2667  -44.8281   13.7221 C   0  0  0  0  0  0  0  0  0  0  0  0
   46.2635  -45.2226   12.8579 C   0  0  0  0  0  0  0  0  0  0  0  0
   46.3910  -44.6823   11.5893 C   0  0  0  0  0  0  0  0  0  0  0  0
   45.5178  -43.7189   11.1359 C   0  0  0  0  0  0  0  0  0  0  0  0
   45.6952  -43.1416    9.7775 C   0  0  0  0  0  0  0  0  0  0  0  0
   45.6065  -44.2112    8.8216 N   0  0  0  0  0  0  0  0  0  0  0  0
   44.7351  -44.2313    7.6967 C   0  0  0  0  0  0  0  0  0  0  0  0
   43.9765  -43.2586    7.4765 O   0  0  0  0  0  0  0  0  0  0  0  0
   44.7449  -45.3384    6.8511 N   0  0  0  0  0  0  0  0  0  0  0  0
   43.9799  -45.3966    5.6388 C   0  0  0  0  0  0  0  0  0  0  0  0
   42.6423  -45.9313    5.9173 C   0  0  0  0  0  0  0  0  0  0  0  0
   42.1435  -46.1407    7.1517 C   0  0  0  0  0  0  0  0  0  0  0  0
   40.8437  -46.6057    7.3458 C   0  0  0  0  0  0  0  0  0  0  0  0
   40.0582  -46.8531    6.2427 C   0  0  0  0  0  0  0  0  0  0  0  0
   38.6645  -47.3336    6.4282 C   0  0  0  0  0  0  0  0  0  0  0  0
   37.7396  -46.2609    6.1588 N   0  0  0  0  0  0  0  0  0  0  0  0
   36.5769  -46.3929    5.4972 C   0  0  0  0  0  0  0  0  0  0  0  0
   35.9708  -45.1391    5.4459 C   0  0  0  0  0  0  0  0  0  0  0  0
   36.8333  -44.2956    6.1022 C   0  0  0  0  0  0  0  0  0  0  0  0
   37.8994  -44.9867    6.5283 N   0  0  0  0  0  0  0  0  0  0  0  0
   40.5355  -46.6521    4.9692 C   0  0  0  0  0  0  0  0  0  0  0  0
   41.8332  -46.1891    4.8048 C   0  0  0  0  0  0  0  0  0  0  0  0
   44.5188  -43.3243   12.0012 C   0  0  0  0  0  0  0  0  0  0  0  0
   44.3824  -43.8646   13.2847 C   0  0  0  0  0  0  0  0  0  0  0  0
  1  2  1  0  0  0  0
  2  3  2  0  0  0  0
  3  4  1  0  0  0  0
  4  5  2  0  0  0  0
  5  6  1  0  0  0  0
  5 24  1  0  0  0  0
  6  7  1  0  0  0  0
  7  8  1  0  0  0  0
  8  9  2  0  0  0  0
  8 10  1  0  0  0  0
 10 11  1  0  0  0  0
 11 12  1  0  0  0  0
 12 13  2  0  0  0  0
 13 14  1  0  0  0  0
 14 15  2  0  0  0  0
 15 16  1  0  0  0  0
 15 22  1  0  0  0  0
 16 17  1  0  0  0  0
 17 18  1  0  0  0  0
 18 19  2  0  0  0  0
 19 20  1  0  0  0  0
 20 21  2  0  0  0  0
 21 17  1  0  0  0  0
 22 23  2  0  0  0  0
 23 12  1  0  0  0  0
 24 25  2  0  0  0  0
 25  2  1  0  0  0  0
M  END
>  <CHROM.1>
59.59889927,126.69893283,-88.81261210,9.33162631,105.25525149,139.68418233
42.34567425,-45.16569907,8.33957610,0.72706593,0.13860881,1.47905970

>  <Name>
design_7

>  <RI>
0

>  <Rbt.Current_Directory>
/home/ziqiaoxu/icml18-jtnn/VAEdesign

>  <Rbt.Executable>
rbdock ($Id: //depot/dev/client3/rdock/2013.1/src/exe/rbdock.cxx#4 $)

>  <Rbt.Library>
libRbt.so (2013.1, Build901 2013/11/27)

>  <Rbt.Parameter_File>
/export/apps/rDock/src/rDock_2013.1_src//data/scripts/dock.prm

>  <Rbt.Receptor>
/home/ziqiaoxu/icml18-jtnn/VAEdesign/targets/RdRp-SARS-CoV-2/pocket_docking.prm

>  <SCORE>
-19.8382

>  <SCORE.INTER>
-20.0101

>  <SCORE.INTER.CONST>
1

>  <SCORE.INTER.POLAR>
-1.78885

>  <SCORE.INTER.REPUL>
0.0132297

>  <SCORE.INTER.ROT>
6

>  <SCORE.INTER.VDW>
-25.3942

>  <SCORE.INTER.norm>
-0.800406

>  <SCORE.INTRA>
0.171937

>  <SCORE.INTRA.DIHEDRAL>
0.0769751

>  <SCORE.INTRA.DIHEDRAL.0>
6.92445

>  <SCORE.INTRA.POLAR>
0

>  <SCORE.INTRA.POLAR.0>
0

>  <SCORE.INTRA.REPUL>
0

>  <SCORE.INTRA.REPUL.0>
0

>  <SCORE.INTRA.VDW>
0.13345

>  <SCORE.INTRA.VDW.0>
-2.0344

>  <SCORE.INTRA.norm>
0.00687749

>  <SCORE.RESTR>
0

>  <SCORE.RESTR.CAVITY>
0

>  <SCORE.RESTR.norm>
0

>  <SCORE.SYSTEM>
0

>  <SCORE.SYSTEM.CONST>
0

>  <SCORE.SYSTEM.DIHEDRAL>
0

>  <SCORE.SYSTEM.norm>
0

>  <SCORE.heavy>
25

>  <SCORE.norm>
-0.793528

$$$$
design_1
 OpenBabel05252019093D

 25 28  0  0  0  0  0  0  0  0999 V2000
   45.9549  -44.0319    3.7889 O   0  0  0  0  0  0  0  0  0  0  0  0
   46.2734  -45.0764    4.4496 C   0  0  0  0  0  0  0  0  0  0  0  0
   47.4318  -45.9192    4.0656 C   0  0  0  0  0  0  0  0  0  0  0  0
   46.8952  -47.2101    3.4734 C   0  0  0  0  0  0  0  0  0  0  0  0
   46.6226  -47.1023    2.0675 N   0  0  0  0  0  0  0  0  0  0  0  0
   47.4276  -47.5030    1.0783 C   0  0  0  0  0  0  0  0  0  0  0  0
   48.5604  -48.0436    1.1518 O   0  0  0  0  0  0  0  0  0  0  0  0
   46.8315  -47.2360   -0.0484 O   0  0  0  0  0  0  0  0  0  0  0  0
   45.6656  -46.6754    0.1361 C   0  0  0  0  0  0  0  0  0  0  0  0
   44.6909  -46.2233   -0.7391 C   0  0  0  0  0  0  0  0  0  0  0  0
   43.5553  -45.6715   -0.1989 C   0  0  0  0  0  0  0  0  0  0  0  0
   43.3546  -45.5539    1.1555 C   0  0  0  0  0  0  0  0  0  0  0  0
   44.3573  -46.0202    1.9819 C   0  0  0  0  0  0  0  0  0  0  0  0
   45.5228  -46.5853    1.5027 C   0  0  0  0  0  0  0  0  0  0  0  0
   45.4866  -45.4252    5.5792 N   0  0  0  0  0  0  0  0  0  0  0  0
   44.3474  -44.6232    5.9824 C   0  0  0  0  0  0  0  0  0  0  0  0
   43.4926  -45.4228    6.9054 C   0  0  2  0  0  0  0  0  0  0  0  0
   42.3246  -46.0838    6.2025 C   0  0  0  0  0  0  0  0  0  0  0  0
   41.3875  -46.2982    7.3339 C   0  0  0  0  0  0  0  0  0  0  0  0
   40.3364  -47.1562    7.5700 C   0  0  0  0  0  0  0  0  0  0  0  0
   39.6075  -47.1466    8.7440 C   0  0  0  0  0  0  0  0  0  0  0  0
   39.9502  -46.2384    9.7174 C   0  0  0  0  0  0  0  0  0  0  0  0
   41.0001  -45.3832    9.4784 C   0  0  0  0  0  0  0  0  0  0  0  0
   41.7292  -45.3931    8.3035 C   0  0  0  0  0  0  0  0  0  0  0  0
   42.8216  -44.6193    7.8612 O   0  0  0  0  0  0  0  0  0  0  0  0
  1  2  2  0  0  0  0
  2  3  1  0  0  0  0
  2 15  1  0  0  0  0
  3  4  1  0  0  0  0
  4  5  1  0  0  0  0
  5  6  1  0  0  0  0
  6  7  2  0  0  0  0
  6  8  1  0  0  0  0
  8  9  1  0  0  0  0
  9 10  2  0  0  0  0
 10 11  1  0  0  0  0
 11 12  2  0  0  0  0
 12 13  1  0  0  0  0
 13 14  2  0  0  0  0
 14  5  1  0  0  0  0
 14  9  1  0  0  0  0
 15 16  1  0  0  0  0
 17 16  1  6  0  0  0
 17 18  1  0  0  0  0
 18 19  1  0  0  0  0
 19 20  2  0  0  0  0
 20 21  1  0  0  0  0
 21 22  2  0  0  0  0
 22 23  1  0  0  0  0
 23 24  2  0  0  0  0
 24 25  1  0  0  0  0
 24 19  1  0  0  0  0
 25 17  1  0  0  0  0
M  END
>  <CHROM.1>
-107.52634730,86.33969264,98.03434570,163.09407783,-97.16505253,44.30864912
-46.09836758,4.28155191,-0.96014181,0.06046781,1.41990389

>  <Name>
design_1

>  <RI>
0

>  <Rbt.Current_Directory>
/home/ziqiaoxu/icml18-jtnn/VAEdesign

>  <Rbt.Executable>
rbdock ($Id: //depot/dev/client3/rdock/2013.1/src/exe/rbdock.cxx#4 $)

>  <Rbt.Library>
libRbt.so (2013.1, Build901 2013/11/27)

>  <Rbt.Parameter_File>
/export/apps/rDock/src/rDock_2013.1_src//data/scripts/dock.prm

>  <Rbt.Receptor>
/home/ziqiaoxu/icml18-jtnn/VAEdesign/targets/RdRp-SARS-CoV-2/pocket_docking.prm

>  <SCORE>
-17.8271

>  <SCORE.INTER>
-17.9034

>  <SCORE.INTER.CONST>
1

>  <SCORE.INTER.POLAR>
-0.894427

>  <SCORE.INTER.REPUL>
0.0259023

>  <SCORE.INTER.ROT>
5

>  <SCORE.INTER.VDW>
-25.3919

>  <SCORE.INTER.norm>
-0.716137

>  <SCORE.INTRA>
0.0763665

>  <SCORE.INTRA.DIHEDRAL>
5.7842

>  <SCORE.INTRA.DIHEDRAL.0>
4.92572

>  <SCORE.INTRA.POLAR>
0

>  <SCORE.INTRA.POLAR.0>
0

>  <SCORE.INTRA.REPUL>
0

>  <SCORE.INTRA.REPUL.0>
0

>  <SCORE.INTRA.VDW>
-2.81573

>  <SCORE.INTRA.VDW.0>
0.419703

>  <SCORE.INTRA.norm>
0.00305466

>  <SCORE.RESTR>
0

>  <SCORE.RESTR.CAVITY>
0

>  <SCORE.RESTR.norm>
0

>  <SCORE.SYSTEM>
0

>  <SCORE.SYSTEM.CONST>
0

>  <SCORE.SYSTEM.DIHEDRAL>
0

>  <SCORE.SYSTEM.norm>
0

>  <SCORE.heavy>
25

>  <SCORE.norm>
-0.713082

$$$$
design_6
 OpenBabel05252019093D

 25 26  0  0  0  0  0  0  0  0999 V2000
   39.8827  -36.5905    2.4485 C   0  0  0  0  0  0  0  0  0  0  0  0
   40.8489  -37.5356    1.7755 C   0  0  0  0  0  0  0  0  0  0  0  0
   40.7104  -38.8494    2.4216 N   0  0  0  0  0  0  0  0  0  0  0  0
   41.4704  -39.1761    3.5728 C   0  0  0  0  0  0  0  0  0  0  0  0
   42.2742  -38.3297    4.0480 O   0  0  0  0  0  0  0  0  0  0  0  0
   41.3165  -40.4420    4.1685 N   0  0  0  0  0  0  0  0  0  0  0  0
   42.0963  -40.7559    5.3318 C   0  0  0  0  0  0  0  0  0  0  0  0
   41.3962  -40.5780    6.6197 C   0  0  0  0  0  0  0  0  0  0  0  0
   41.2690  -39.2860    7.0896 C   0  0  0  0  0  0  0  0  0  0  0  0
   40.6313  -39.0592    8.2867 C   0  0  0  0  0  0  0  0  0  0  0  0
   40.1108  -40.1286    9.0312 C   0  0  0  0  0  0  0  0  0  0  0  0
   40.2156  -41.4239    8.5999 C   0  0  0  0  0  0  0  0  0  0  0  0
   39.7146  -42.5732    9.2540 N   0  0  0  0  0  0  0  0  0  0  0  0
   40.0571  -43.8941    8.9295 C   0  0  0  0  0  0  0  0  0  0  0  0
   40.8549  -44.2147    8.0307 O   0  0  0  0  0  0  0  0  0  0  0  0
   39.4807  -45.0088    9.6481 N   0  0  0  0  0  0  0  0  0  0  0  0
   39.7878  -46.3758    9.3642 C   0  0  0  0  0  0  0  0  0  0  0  0
   39.1034  -46.8107    8.1196 C   0  0  0  0  0  0  0  0  0  0  0  0
   39.4334  -48.0128    7.5324 C   0  0  0  0  0  0  0  0  0  0  0  0
   38.7585  -48.3657    6.3754 C   0  0  0  0  0  0  0  0  0  0  0  0
   37.7908  -47.5464    5.8278 C   0  0  0  0  0  0  0  0  0  0  0  0
   37.4537  -46.3479    6.4029 C   0  0  0  0  0  0  0  0  0  0  0  0
   36.4176  -45.4691    5.8189 C   0  0  0  0  0  0  0  0  0  0  0  0
   38.1203  -45.9894    7.5540 C   0  0  0  0  0  0  0  0  0  0  0  0
   40.8814  -41.5749    7.3665 C   0  0  0  0  0  0  0  0  0  0  0  0
  1  2  1  0  0  0  0
  2  3  1  0  0  0  0
  3  4  1  0  0  0  0
  4  5  2  0  0  0  0
  4  6  1  0  0  0  0
  6  7  1  0  0  0  0
  7  8  1  0  0  0  0
  8  9  2  0  0  0  0
  9 10  1  0  0  0  0
 10 11  2  0  0  0  0
 11 12  1  0  0  0  0
 12 13  1  0  0  0  0
 12 25  2  0  0  0  0
 13 14  1  0  0  0  0
 14 15  2  0  0  0  0
 14 16  1  0  0  0  0
 16 17  1  0  0  0  0
 17 18  1  0  0  0  0
 18 19  2  0  0  0  0
 19 20  1  0  0  0  0
 20 21  2  0  0  0  0
 21 22  1  0  0  0  0
 22 23  1  0  0  0  0
 22 24  2  0  0  0  0
 24 18  1  0  0  0  0
 25  8  1  0  0  0  0
M  END
>  <CHROM.1>
-87.90803866,97.92023520,-77.80190021,-166.91352571,-75.24524257,168.93320331
40.01655027,-42.49798215,6.48731616,0.87152928,-1.16394429,-1.09758680

>  <Name>
design_6

>  <RI>
0

>  <Rbt.Current_Directory>
/home/ziqiaoxu/icml18-jtnn/VAEdesign

>  <Rbt.Executable>
rbdock ($Id: //depot/dev/client3/rdock/2013.1/src/exe/rbdock.cxx#4 $)

>  <Rbt.Library>
libRbt.so (2013.1, Build901 2013/11/27)

>  <Rbt.Parameter_File>
/export/apps/rDock/src/rDock_2013.1_src//data/scripts/dock.prm

>  <Rbt.Receptor>
/home/ziqiaoxu/icml18-jtnn/VAEdesign/targets/RdRp-SARS-CoV-2/pocket_docking.prm

>  <SCORE>
-23.3094

>  <SCORE.INTER>
-23.0004

>  <SCORE.INTER.CONST>
1

>  <SCORE.INTER.POLAR>
-2.64977

>  <SCORE.INTER.REPUL>
0

>  <SCORE.INTER.ROT>
6

>  <SCORE.INTER.VDW>
-25.3912

>  <SCORE.INTER.norm>
-0.920016

>  <SCORE.INTRA>
-0.308968

>  <SCORE.INTRA.DIHEDRAL>
-0.234166

>  <SCORE.INTRA.DIHEDRAL.0>
5.98941

>  <SCORE.INTRA.POLAR>
0

>  <SCORE.INTRA.POLAR.0>
0

>  <SCORE.INTRA.REPUL>
0

>  <SCORE.INTRA.REPUL.0>
0

>  <SCORE.INTRA.VDW>
-0.191885

>  <SCORE.INTRA.VDW.0>
-1.06531

>  <SCORE.INTRA.norm>
-0.0123587

>  <SCORE.RESTR>
0

>  <SCORE.RESTR.CAVITY>
0

>  <SCORE.RESTR.norm>
0

>  <SCORE.SYSTEM>
0

>  <SCORE.SYSTEM.CONST>
0

>  <SCORE.SYSTEM.DIHEDRAL>
0

>  <SCORE.SYSTEM.norm>
0

>  <SCORE.heavy>
25

>  <SCORE.norm>
-0.932374

$$$$
design_5
 OpenBabel05252019093D

 22 23  0  0  0  0  0  0  0  0999 V2000
   44.1734  -45.9489    0.3737 C   0  0  0  0  0  0  0  0  0  0  0  0
   44.8767  -46.0322    1.6686 C   0  0  0  0  0  0  0  0  0  0  0  0
   46.0762  -46.6954    1.7938 C   0  0  0  0  0  0  0  0  0  0  0  0
   46.7079  -46.7531    3.0255 C   0  0  0  0  0  0  0  0  0  0  0  0
   48.0144  -47.4772    3.1553 C   0  0  0  0  0  0  0  0  0  0  0  0
   46.1652  -46.1622    4.1311 C   0  0  0  0  0  0  0  0  0  0  0  0
   44.9418  -45.4776    4.0361 C   0  0  0  0  0  0  0  0  0  0  0  0
   44.4000  -44.8623    5.2388 C   0  0  0  0  0  0  0  0  0  0  0  0
   43.4653  -44.0134    5.1626 O   0  0  0  0  0  0  0  0  0  0  0  0
   44.8981  -45.1927    6.5127 N   0  0  0  0  0  0  0  0  0  0  0  0
   44.4080  -44.6384    7.7426 C   0  0  0  0  0  0  0  0  0  0  0  0
   43.0885  -45.1800    8.0978 C   0  0  0  0  0  0  0  0  0  0  0  0
   42.6131  -44.7647    9.2027 O   0  0  0  0  0  0  0  0  0  0  0  0
   42.3551  -46.0861    7.3365 N   0  0  0  0  0  0  0  0  0  0  0  0
   41.0637  -46.5425    7.7513 C   0  0  0  0  0  0  0  0  0  0  0  0
   40.4343  -46.1161    8.8690 C   0  0  0  0  0  0  0  0  0  0  0  0
   39.1787  -46.6550    9.2050 C   0  0  0  0  0  0  0  0  0  0  0  0
   38.5694  -47.6061    8.4261 C   0  0  0  0  0  0  0  0  0  0  0  0
   39.2379  -48.0167    7.2947 C   0  0  0  0  0  0  0  0  0  0  0  0
   38.4953  -49.2354    6.2628 Cl  0  0  0  0  0  0  0  0  0  0  0  0
   40.4516  -47.5180    6.9405 C   0  0  0  0  0  0  0  0  0  0  0  0
   44.3316  -45.4324    2.8044 C   0  0  0  0  0  0  0  0  0  0  0  0
  1  2  1  0  0  0  0
  2  3  2  0  0  0  0
  3  4  1  0  0  0  0
  4  5  1  0  0  0  0
  4  6  2  0  0  0  0
  6  7  1  0  0  0  0
  7  8  1  0  0  0  0
  7 22  2  0  0  0  0
  8  9  2  0  0  0  0
  8 10  1  0  0  0  0
 10 11  1  0  0  0  0
 11 12  1  0  0  0  0
 12 13  2  0  0  0  0
 12 14  1  0  0  0  0
 14 15  1  0  0  0  0
 15 16  2  0  0  0  0
 16 17  1  0  0  0  0
 17 18  2  0  0  0  0
 18 19  1  0  0  0  0
 19 20  1  0  0  0  0
 19 21  2  0  0  0  0
 21 15  1  0  0  0  0
 22  2  1  0  0  0  0
M  END
>  <CHROM.1>
165.29711173,73.17287054,177.72371162,2.12001176,42.80659630,-46.38089729
5.73079589,0.50616022,-0.49208742,-2.00717696

>  <Name>
design_5

>  <RI>
0

>  <Rbt.Current_Directory>
/home/ziqiaoxu/icml18-jtnn/VAEdesign

>  <Rbt.Executable>
rbdock ($Id: //depot/dev/client3/rdock/2013.1/src/exe/rbdock.cxx#4 $)

>  <Rbt.Library>
libRbt.so (2013.1, Build901 2013/11/27)

>  <Rbt.Parameter_File>
/export/apps/rDock/src/rDock_2013.1_src//data/scripts/dock.prm

>  <Rbt.Receptor>
/home/ziqiaoxu/icml18-jtnn/VAEdesign/targets/RdRp-SARS-CoV-2/pocket_docking.prm

>  <SCORE>
-19.3133

>  <SCORE.INTER>
-19.0311

>  <SCORE.INTER.CONST>
1

>  <SCORE.INTER.POLAR>
-0.894427

>  <SCORE.INTER.REPUL>
0

>  <SCORE.INTER.ROT>
4

>  <SCORE.INTER.VDW>
-25.3901

>  <SCORE.INTER.norm>
-0.86505

>  <SCORE.INTRA>
-0.282223

>  <SCORE.INTRA.DIHEDRAL>
-2.52443

>  <SCORE.INTRA.DIHEDRAL.0>
5.9061

>  <SCORE.INTRA.POLAR>
0

>  <SCORE.INTRA.POLAR.0>
0

>  <SCORE.INTRA.REPUL>
0

>  <SCORE.INTRA.REPUL.0>
0

>  <SCORE.INTRA.VDW>
0.979994

>  <SCORE.INTRA.VDW.0>
-0.989357

>  <SCORE.INTRA.norm>
-0.0128283

>  <SCORE.RESTR>
0

>  <SCORE.RESTR.CAVITY>
0

>  <SCORE.RESTR.norm>
0

>  <SCORE.SYSTEM>
0

>  <SCORE.SYSTEM.CONST>
0

>  <SCORE.SYSTEM.DIHEDRAL>
0

>  <SCORE.SYSTEM.norm>
0

>  <SCORE.heavy>
22

>  <SCORE.norm>
-0.877879

$$$$
design_2
 OpenBabel05252019093D

 24 27  0  0  0  0  0  0  0  0999 V2000
   36.9483  -46.6023    4.8139 C   0  0  0  0  0  0  0  0  0  0  0  0
   37.8817  -46.8277    5.9867 C   0  0  0  0  0  0  0  0  0  0  0  0
   38.3036  -45.9484    6.8690 N   0  0  0  0  0  0  0  0  0  0  0  0
   39.1116  -46.3144    7.8174 C   0  0  0  0  0  0  0  0  0  0  0  0
   39.6378  -45.3767    8.8426 C   0  0  0  0  0  0  0  0  0  0  0  0
   40.4179  -45.8755    9.8539 C   0  0  0  0  0  0  0  0  0  0  0  0
   40.9301  -45.0866   10.8498 C   0  0  0  0  0  0  0  0  0  0  0  0
   40.6408  -43.7295   10.8230 C   0  0  0  0  0  0  0  0  0  0  0  0
   39.8626  -43.2136    9.8191 C   0  0  0  0  0  0  0  0  0  0  0  0
   39.5492  -41.7677    9.8125 C   0  0  0  0  0  0  0  0  0  0  0  0
   39.4490  -41.1786    8.5133 N   0  0  0  0  0  0  0  0  0  0  0  0
   40.1083  -39.9903    8.1513 C   0  0  0  0  0  0  0  0  0  0  0  0
   40.8535  -39.3249    8.9245 O   0  0  0  0  0  0  0  0  0  0  0  0
   39.9686  -39.4171    6.7901 C   0  0  0  0  0  0  0  0  0  0  0  0
   39.7761  -38.0986    6.4616 C   0  0  0  0  0  0  0  0  0  0  0  0
   39.6818  -37.7972    5.1588 C   0  0  0  0  0  0  0  0  0  0  0  0
   39.4988  -36.6850    4.3726 N   0  0  0  0  0  0  0  0  0  0  0  0
   39.4918  -37.0158    3.0952 N   0  0  0  0  0  0  0  0  0  0  0  0
   39.6646  -38.3303    2.9515 C   0  0  0  0  0  0  0  0  0  0  0  0
   39.7845  -38.8229    4.2608 C   0  0  0  0  0  0  0  0  0  0  0  0
   40.0103  -40.1827    5.2721 S   0  0  0  0  0  0  0  0  0  0  0  0
   39.3549  -44.0483    8.8160 C   0  0  0  0  0  0  0  0  0  0  0  0
   39.4874  -47.6392    7.8406 C   0  0  0  0  0  0  0  0  0  0  0  0
   38.6474  -48.2642    6.4910 S   0  0  0  0  0  0  0  0  0  0  0  0
  1  2  1  0  0  0  0
  2  3  2  0  0  0  0
  3  4  1  0  0  0  0
  4  5  1  0  0  0  0
  4 23  2  0  0  0  0
  5  6  2  0  0  0  0
  6  7  1  0  0  0  0
  7  8  2  0  0  0  0
  8  9  1  0  0  0  0
  9 10  1  0  0  0  0
  9 22  2  0  0  0  0
 10 11  1  0  0  0  0
 11 12  1  0  0  0  0
 12 13  2  0  0  0  0
 12 14  1  0  0  0  0
 14 15  2  0  0  0  0
 15 16  1  0  0  0  0
 16 17  1  0  0  0  0
 17 18  1  0  0  0  0
 18 19  2  0  0  0  0
 19 20  1  0  0  0  0
 20 21  1  0  0  0  0
 20 16  2  0  0  0  0
 21 14  1  0  0  0  0
 22  5  1  0  0  0  0
 23 24  1  0  0  0  0
 24  2  1  0  0  0  0
M  END
>  <CHROM.1>
175.90358476,145.76589918,-130.89590239,136.51952449,39.51180022,-42.54831422
7.03902403,1.82409141,1.22694237,2.59549367

>  <Name>
design_2

>  <RI>
0

>  <Rbt.Current_Directory>
/home/ziqiaoxu/icml18-jtnn/VAEdesign

>  <Rbt.Executable>
rbdock ($Id: //depot/dev/client3/rdock/2013.1/src/exe/rbdock.cxx#4 $)

>  <Rbt.Library>
libRbt.so (2013.1, Build901 2013/11/27)

>  <Rbt.Parameter_File>
/export/apps/rDock/src/rDock_2013.1_src//data/scripts/dock.prm

>  <Rbt.Receptor>
/home/ziqiaoxu/icml18-jtnn/VAEdesign/targets/RdRp-SARS-CoV-2/pocket_docking.prm

>  <SCORE>
-18.6712

>  <SCORE.INTER>
-21.6302

>  <SCORE.INTER.CONST>
1

>  <SCORE.INTER.POLAR>
-1.65968

>  <SCORE.INTER.REPUL>
0

>  <SCORE.INTER.ROT>
4

>  <SCORE.INTER.VDW>
-25.3873

>  <SCORE.INTER.norm>
-0.901259

>  <SCORE.INTRA>
2.91037

>  <SCORE.INTRA.DIHEDRAL>
5.50387

>  <SCORE.INTRA.DIHEDRAL.0>
1.92027

>  <SCORE.INTRA.POLAR>
0

>  <SCORE.INTRA.POLAR.0>
0

>  <SCORE.INTRA.REPUL>
0

>  <SCORE.INTRA.REPUL.0>
0

>  <SCORE.INTRA.VDW>
0.158429

>  <SCORE.INTRA.VDW.0>
-0.913795

>  <SCORE.INTRA.norm>
0.121265

>  <SCORE.RESTR>
0.0486913

>  <SCORE.RESTR.CAVITY>
0.0486913

>  <SCORE.RESTR.norm>
0.0020288

>  <SCORE.SYSTEM>
0

>  <SCORE.SYSTEM.CONST>
0

>  <SCORE.SYSTEM.DIHEDRAL>
0

>  <SCORE.SYSTEM.norm>
0

>  <SCORE.heavy>
24

>  <SCORE.norm>
-0.777965

$$$$
design_9
 OpenBabel05252019093D

 24 25  0  0  0  0  0  0  0  0999 V2000
   43.7728  -46.5432   -0.6474 C   0  0  0  0  0  0  0  0  0  0  0  0
   44.5495  -46.2803    0.6168 C   0  0  0  0  0  0  0  0  0  0  0  0
   45.9139  -46.5769    0.6291 C   0  0  0  0  0  0  0  0  0  0  0  0
   46.6294  -46.3645    1.7823 C   0  0  0  0  0  0  0  0  0  0  0  0
   46.0720  -45.8722    2.9602 C   0  0  0  0  0  0  0  0  0  0  0  0
   46.9019  -45.7893    4.1871 C   0  0  0  0  0  0  0  0  0  0  0  0
   46.3766  -44.9412    5.2014 C   0  0  0  0  0  0  0  0  0  0  0  0
   46.5379  -43.6526    4.9987 O   0  0  0  0  0  0  0  0  0  0  0  0
   45.7128  -45.2169    6.3937 N   0  0  0  0  0  0  0  0  0  0  0  0
   45.2507  -44.2053    7.2999 C   0  0  0  0  0  0  0  0  0  0  0  0
   43.9908  -44.6431    7.9324 C   0  0  0  0  0  0  0  0  0  0  0  0
   43.7225  -44.1414    9.2174 C   0  0  0  0  0  0  0  0  0  0  0  0
   42.5577  -44.4784    9.9130 C   0  0  0  0  0  0  0  0  0  0  0  0
   41.6785  -45.3283    9.2738 C   0  0  0  0  0  0  0  0  0  0  0  0
   40.3907  -45.6800    9.9605 C   0  0  0  0  0  0  0  0  0  0  0  0
   40.3303  -45.2674   11.1094 O   0  0  0  0  0  0  0  0  0  0  0  0
   39.4751  -46.4230    9.2159 N   0  0  0  0  0  0  0  0  0  0  0  0
   38.5843  -47.1405    8.5060 C   0  0  0  0  0  0  0  0  0  0  0  0
   39.1773  -48.1436    7.4991 C   0  0  0  0  0  0  0  0  0  0  0  0
   37.6607  -46.2447    7.6244 C   0  0  0  0  0  0  0  0  0  0  0  0
   41.9137  -45.8247    8.0383 C   0  0  0  0  0  0  0  0  0  0  0  0
   43.0674  -45.4873    7.3670 C   0  0  0  0  0  0  0  0  0  0  0  0
   44.7262  -45.5845    2.9388 C   0  0  0  0  0  0  0  0  0  0  0  0
   43.9945  -45.7967    1.7621 C   0  0  0  0  0  0  0  0  0  0  0  0
  1  2  1  0  0  0  0
  2  3  2  0  0  0  0
  3  4  1  0  0  0  0
  4  5  2  0  0  0  0
  5  6  1  0  0  0  0
  5 23  1  0  0  0  0
  6  7  1  0  0  0  0
  7  8  2  0  0  0  0
  7  9  1  0  0  0  0
  9 10  1  0  0  0  0
 10 11  1  0  0  0  0
 11 12  2  0  0  0  0
 12 13  1  0  0  0  0
 13 14  2  0  0  0  0
 14 15  1  0  0  0  0
 14 21  1  0  0  0  0
 15 16  2  0  0  0  0
 15 17  1  0  0  0  0
 17 18  1  0  0  0  0
 18 19  1  0  0  0  0
 18 20  1  0  0  0  0
 21 22  2  0  0  0  0
 22 11  1  0  0  0  0
 23 24  2  0  0  0  0
 24  2  1  0  0  0  0
M  END
>  <CHROM.1>
162.92599497,-77.13708091,145.53698157,151.53264358,-7.44372500,-145.48064646
43.23147366,-45.65856254,6.03190930,0.88288110,-0.35279294,-1.83956742

>  <Name>
design_9

>  <RI>
0

>  <Rbt.Current_Directory>
/home/ziqiaoxu/icml18-jtnn/VAEdesign

>  <Rbt.Executable>
rbdock ($Id: //depot/dev/client3/rdock/2013.1/src/exe/rbdock.cxx#4 $)

>  <Rbt.Library>
libRbt.so (2013.1, Build901 2013/11/27)

>  <Rbt.Parameter_File>
/export/apps/rDock/src/rDock_2013.1_src//data/scripts/dock.prm

>  <Rbt.Receptor>
/home/ziqiaoxu/icml18-jtnn/VAEdesign/targets/RdRp-SARS-CoV-2/pocket_docking.prm

>  <SCORE>
-22.3476

>  <SCORE.INTER>
-19.5205

>  <SCORE.INTER.CONST>
1

>  <SCORE.INTER.POLAR>
-1.62748

>  <SCORE.INTER.REPUL>
0

>  <SCORE.INTER.ROT>
6

>  <SCORE.INTER.VDW>
-25.387

>  <SCORE.INTER.norm>
-0.813353

>  <SCORE.INTRA>
-2.82709

>  <SCORE.INTRA.DIHEDRAL>
-7.3107

>  <SCORE.INTRA.DIHEDRAL.0>
12.8797

>  <SCORE.INTRA.POLAR>
0

>  <SCORE.INTRA.POLAR.0>
0

>  <SCORE.INTRA.REPUL>
0

>  <SCORE.INTRA.REPUL.0>
0

>  <SCORE.INTRA.VDW>
0.828257

>  <SCORE.INTRA.VDW.0>
-1.74331

>  <SCORE.INTRA.norm>
-0.117796

>  <SCORE.RESTR>
0

>  <SCORE.RESTR.CAVITY>
0

>  <SCORE.RESTR.norm>
0

>  <SCORE.SYSTEM>
0

>  <SCORE.SYSTEM.CONST>
0

>  <SCORE.SYSTEM.DIHEDRAL>
0

>  <SCORE.SYSTEM.norm>
0

>  <SCORE.heavy>
24

>  <SCORE.norm>
-0.931149

$$$$
design_4
 OpenBabel05252019093D

 24 27  0  0  0  0  0  0  0  0999 V2000
   41.4706  -40.5033    3.9646 C   0  0  0  0  0  0  0  0  0  0  0  0
   40.8357  -39.1822    3.7499 C   0  0  0  0  0  0  0  0  0  0  0  0
   40.7242  -38.6703    2.4447 C   0  0  0  0  0  0  0  0  0  0  0  0
   40.1642  -37.4602    2.1579 C   0  0  0  0  0  0  0  0  0  0  0  0
   39.6884  -36.7115    3.1996 C   0  0  0  0  0  0  0  0  0  0  0  0
   39.7970  -37.2132    4.4814 C   0  0  0  0  0  0  0  0  0  0  0  0
   40.3572  -38.4310    4.8016 C   0  0  0  0  0  0  0  0  0  0  0  0
   40.4409  -38.8755    6.2172 C   0  0  0  0  0  0  0  0  0  0  0  0
   40.6384  -37.9391    7.2091 C   0  0  0  0  0  0  0  0  0  0  0  0
   40.6811  -38.9059    8.6099 S   0  0  0  0  0  0  0  0  0  0  0  0
   40.4429  -40.4596    7.8456 C   0  0  0  0  0  0  0  0  0  0  0  0
   40.3876  -41.7082    8.5607 N   0  0  0  0  0  0  0  0  0  0  0  0
   40.0962  -42.9029    7.8989 C   0  0  0  0  0  0  0  0  0  0  0  0
   39.8702  -42.9236    6.6780 O   0  0  0  0  0  0  0  0  0  0  0  0
   40.0448  -44.1947    8.6259 C   0  0  0  0  0  0  0  0  0  0  0  0
   40.3887  -44.2770    9.9566 C   0  0  0  0  0  0  0  0  0  0  0  0
   40.3283  -45.5003   10.6016 C   0  0  0  0  0  0  0  0  0  0  0  0
   39.9370  -46.5657    9.9097 N   0  0  0  0  0  0  0  0  0  0  0  0
   39.5966  -46.5042    8.6069 C   0  0  0  0  0  0  0  0  0  0  0  0
   39.1740  -47.7491    7.9266 C   0  0  0  0  0  0  0  0  0  0  0  0
   39.9000  -48.2181    6.7204 C   0  0  0  0  0  0  0  0  0  0  0  0
   38.4491  -47.6479    6.6037 C   0  0  0  0  0  0  0  0  0  0  0  0
   39.6604  -45.3148    7.9982 N   0  0  0  0  0  0  0  0  0  0  0  0
   40.3522  -40.1111    6.5969 N   0  0  0  0  0  0  0  0  0  0  0  0
  1  2  1  0  0  0  0
  2  3  2  0  0  0  0
  3  4  1  0  0  0  0
  4  5  2  0  0  0  0
  5  6  1  0  0  0  0
  6  7  2  0  0  0  0
  7  8  1  0  0  0  0
  7  2  1  0  0  0  0
  8  9  2  0  0  0  0
  9 10  1  0  0  0  0
 10 11  1  0  0  0  0
 11 12  1  0  0  0  0
 11 24  2  0  0  0  0
 12 13  1  0  0  0  0
 13 14  2  0  0  0  0
 13 15  1  0  0  0  0
 15 16  2  0  0  0  0
 16 17  1  0  0  0  0
 17 18  2  0  0  0  0
 18 19  1  0  0  0  0
 19 20  1  0  0  0  0
 19 23  2  0  0  0  0
 20 21  1  0  0  0  0
 21 22  1  0  0  0  0
 22 20  1  0  0  0  0
 23 15  1  0  0  0  0
 24  8  1  0  0  0  0
M  END
>  <CHROM.1>
145.54534935,175.23017338,-5.33092124,-122.50629286,40.17113847,-41.88461235
6.83777674,1.00085060,-1.42368302,-1.00662501

>  <Name>
design_4

>  <RI>
0

>  <Rbt.Current_Directory>
/home/ziqiaoxu/icml18-jtnn/VAEdesign

>  <Rbt.Executable>
rbdock ($Id: //depot/dev/client3/rdock/2013.1/src/exe/rbdock.cxx#4 $)

>  <Rbt.Library>
libRbt.so (2013.1, Build901 2013/11/27)

>  <Rbt.Parameter_File>
/export/apps/rDock/src/rDock_2013.1_src//data/scripts/dock.prm

>  <Rbt.Receptor>
/home/ziqiaoxu/icml18-jtnn/VAEdesign/targets/RdRp-SARS-CoV-2/pocket_docking.prm

>  <SCORE>
-15.8134

>  <SCORE.INTER>
-16.4491

>  <SCORE.INTER.CONST>
1

>  <SCORE.INTER.POLAR>
-0.136809

>  <SCORE.INTER.REPUL>
0.000546273

>  <SCORE.INTER.ROT>
4

>  <SCORE.INTER.VDW>
-25.3867

>  <SCORE.INTER.norm>
-0.685378

>  <SCORE.INTRA>
0.625767

>  <SCORE.INTRA.DIHEDRAL>
4.20281

>  <SCORE.INTRA.DIHEDRAL.0>
0.961788

>  <SCORE.INTRA.POLAR>
0

>  <SCORE.INTRA.POLAR.0>
0

>  <SCORE.INTRA.REPUL>
0

>  <SCORE.INTRA.REPUL.0>
0

>  <SCORE.INTRA.VDW>
-1.47564

>  <SCORE.INTRA.VDW.0>
0.160305

>  <SCORE.INTRA.norm>
0.0260736

>  <SCORE.RESTR>
0.00987334

>  <SCORE.RESTR.CAVITY>
0.00987334

>  <SCORE.RESTR.norm>
0.000411389

>  <SCORE.SYSTEM>
0

>  <SCORE.SYSTEM.CONST>
0

>  <SCORE.SYSTEM.DIHEDRAL>
0

>  <SCORE.SYSTEM.norm>
0

>  <SCORE.heavy>
24

>  <SCORE.norm>
-0.658893

$$$$
design_9
 OpenBabel05252019093D

 24 26  0  0  0  0  0  0  0  0999 V2000
   40.1663  -38.3363    3.0312 C   0  0  0  0  0  0  0  0  0  0  0  0
   40.2533  -38.7166    4.4824 C   0  0  0  0  0  0  0  0  0  0  0  0
   41.3457  -39.3826    4.9987 C   0  0  0  0  0  0  0  0  0  0  0  0
   41.4133  -39.7259    6.3323 C   0  0  0  0  0  0  0  0  0  0  0  0
   40.3955  -39.4189    7.2015 C   0  0  0  0  0  0  0  0  0  0  0  0
   40.4081  -39.7578    8.6345 C   0  0  0  0  0  0  0  0  0  0  0  0
   40.2709  -41.2289    8.8618 C   0  0  0  0  0  0  0  0  0  0  0  0
   40.7514  -42.0599    8.0449 O   0  0  0  0  0  0  0  0  0  0  0  0
   39.5923  -41.6793   10.0100 N   0  0  0  0  0  0  0  0  0  0  0  0
   39.4681  -43.1087   10.2156 C   0  0  0  0  0  0  0  0  0  0  0  0
   40.7642  -43.7477   10.6705 C   0  0  0  0  0  0  0  0  0  0  0  0
   40.6073  -45.2036   10.8067 C   0  0  0  0  0  0  0  0  0  0  0  0
   40.3692  -45.9605    9.6385 N   0  0  0  0  0  0  0  0  0  0  0  0
   39.5620  -47.0103    9.5974 N   0  0  0  0  0  0  0  0  0  0  0  0
   39.5350  -47.5271    8.3585 C   0  0  0  0  0  0  0  0  0  0  0  0
   38.8521  -48.6055    7.8349 C   0  0  0  0  0  0  0  0  0  0  0  0
   39.0312  -48.8981    6.4940 C   0  0  0  0  0  0  0  0  0  0  0  0
   39.8700  -48.1313    5.7043 C   0  0  0  0  0  0  0  0  0  0  0  0
   40.5224  -47.0790    6.2607 C   0  0  0  0  0  0  0  0  0  0  0  0
   40.3443  -46.7932    7.5814 N   0  0  0  0  0  0  0  0  0  0  0  0
   40.8426  -45.8443    8.3795 C   0  0  0  0  0  0  0  0  0  0  0  0
   41.6441  -44.9450    8.0529 O   0  0  0  0  0  0  0  0  0  0  0  0
   39.2978  -38.7516    6.6915 C   0  0  0  0  0  0  0  0  0  0  0  0
   39.2318  -38.4090    5.3578 C   0  0  0  0  0  0  0  0  0  0  0  0
  1  2  1  0  0  0  0
  2  3  2  0  0  0  0
  3  4  1  0  0  0  0
  4  5  2  0  0  0  0
  5  6  1  0  0  0  0
  5 23  1  0  0  0  0
  6  7  1  0  0  0  0
  7  8  2  0  0  0  0
  7  9  1  0  0  0  0
  9 10  1  0  0  0  0
 10 11  1  0  0  0  0
 11 12  1  0  0  0  0
 12 13  1  0  0  0  0
 13 14  1  0  0  0  0
 14 15  2  0  0  0  0
 15 16  1  0  0  0  0
 16 17  2  0  0  0  0
 17 18  1  0  0  0  0
 18 19  2  0  0  0  0
 19 20  1  0  0  0  0
 20 21  1  0  0  0  0
 20 15  1  0  0  0  0
 21 22  2  0  0  0  0
 21 13  1  0  0  0  0
 23 24  2  0  0  0  0
 24  2  1  0  0  0  0
M  END
>  <CHROM.1>
-69.91060066,32.79834858,74.70049497,-177.41610283,66.12931804,-142.85877672
40.20218681,-43.34315245,7.67580628,0.82528043,-1.51007260,-1.01904566

>  <Name>
design_9

>  <RI>
0

>  <Rbt.Current_Directory>
/home/ziqiaoxu/icml18-jtnn/VAEdesign

>  <Rbt.Executable>
rbdock ($Id: //depot/dev/client3/rdock/2013.1/src/exe/rbdock.cxx#4 $)

>  <Rbt.Library>
libRbt.so (2013.1, Build901 2013/11/27)

>  <Rbt.Parameter_File>
/export/apps/rDock/src/rDock_2013.1_src//data/scripts/dock.prm

>  <Rbt.Receptor>
/home/ziqiaoxu/icml18-jtnn/VAEdesign/targets/RdRp-SARS-CoV-2/pocket_docking.prm

>  <SCORE>
-16.1489

>  <SCORE.INTER>
-15.8021

>  <SCORE.INTER.CONST>
1

>  <SCORE.INTER.POLAR>
-0.959166

>  <SCORE.INTER.REPUL>
0.288938

>  <SCORE.INTER.ROT>
6

>  <SCORE.INTER.VDW>
-25.3856

>  <SCORE.INTER.norm>
-0.65842

>  <SCORE.INTRA>
-0.346854

>  <SCORE.INTRA.DIHEDRAL>
0.166415

>  <SCORE.INTRA.DIHEDRAL.0>
5.66208

>  <SCORE.INTRA.POLAR>
0

>  <SCORE.INTRA.POLAR.0>
0

>  <SCORE.INTRA.REPUL>
0

>  <SCORE.INTRA.REPUL.0>
0

>  <SCORE.INTRA.VDW>
-0.430062

>  <SCORE.INTRA.VDW.0>
-1.16427

>  <SCORE.INTRA.norm>
-0.0144523

>  <SCORE.RESTR>
0

>  <SCORE.RESTR.CAVITY>
0

>  <SCORE.RESTR.norm>
0

>  <SCORE.SYSTEM>
0

>  <SCORE.SYSTEM.CONST>
0

>  <SCORE.SYSTEM.DIHEDRAL>
0

>  <SCORE.SYSTEM.norm>
0

>  <SCORE.heavy>
24

>  <SCORE.norm>
-0.672873

$$$$
design_3
 OpenBabel05252019093D

 27 29  0  0  0  0  0  0  0  0999 V2000
   39.2884  -48.4222    6.1041 C   0  0  0  0  0  0  0  0  0  0  0  0
   40.4448  -47.4788    6.2522 C   0  0  0  0  0  0  0  0  0  0  0  0
   40.9177  -47.0835    7.4851 C   0  0  0  0  0  0  0  0  0  0  0  0
   41.9815  -46.2143    7.6460 C   0  0  0  0  0  0  0  0  0  0  0  0
   42.6173  -45.7044    6.5205 C   0  0  0  0  0  0  0  0  0  0  0  0
   43.7581  -44.7808    6.6243 C   0  0  0  0  0  0  0  0  0  0  0  0
   42.1527  -46.0928    5.2909 C   0  0  0  0  0  0  0  0  0  0  0  0
   42.7882  -45.5695    4.0774 C   0  0  0  0  0  0  0  0  0  0  0  0
   43.9657  -45.1431    4.1050 O   0  0  0  0  0  0  0  0  0  0  0  0
   42.0363  -45.5622    2.8786 N   0  0  0  0  0  0  0  0  0  0  0  0
   42.6164  -45.0554    1.6707 C   0  0  0  0  0  0  0  0  0  0  0  0
   42.6820  -43.5804    1.6094 C   0  0  0  0  0  0  0  0  0  0  0  0
   42.2318  -42.9386    2.5821 O   0  0  0  0  0  0  0  0  0  0  0  0
   43.2292  -42.9078    0.5022 N   0  0  0  0  0  0  0  0  0  0  0  0
   43.3597  -41.5086    0.3203 C   0  0  0  0  0  0  0  0  0  0  0  0
   44.3942  -41.1134   -0.5406 C   0  0  0  0  0  0  0  0  0  0  0  0
   44.5804  -39.7720   -0.7308 C   0  0  0  0  0  0  0  0  0  0  0  0
   43.7872  -38.8098   -0.1058 C   0  0  0  0  0  0  0  0  0  0  0  0
   42.7699  -39.1863    0.7403 C   0  0  0  0  0  0  0  0  0  0  0  0
   41.8968  -38.2462    1.4404 C   0  0  0  0  0  0  0  0  0  0  0  0
   42.1762  -36.9938    1.4272 O   0  0  0  0  0  0  0  0  0  0  0  0
   40.7399  -38.6356    2.1455 N   0  0  0  0  0  0  0  0  0  0  0  0
   39.9393  -37.6320    2.8068 C   0  0  0  0  0  0  0  0  0  0  0  0
   40.5852  -36.9989    4.0225 C   0  0  0  0  0  0  0  0  0  0  0  0
   39.3790  -37.8927    4.1569 C   0  0  0  0  0  0  0  0  0  0  0  0
   42.5846  -40.5543    0.9305 C   0  0  0  0  0  0  0  0  0  0  0  0
   41.0797  -46.9699    5.1344 C   0  0  0  0  0  0  0  0  0  0  0  0
  1  2  1  0  0  0  0
  2  3  2  0  0  0  0
  3  4  1  0  0  0  0
  4  5  2  0  0  0  0
  5  6  1  0  0  0  0
  5  7  1  0  0  0  0
  7  8  1  0  0  0  0
  7 27  2  0  0  0  0
  8  9  2  0  0  0  0
  8 10  1  0  0  0  0
 10 11  1  0  0  0  0
 11 12  1  0  0  0  0
 12 13  2  0  0  0  0
 12 14  1  0  0  0  0
 14 15  1  0  0  0  0
 15 16  2  0  0  0  0
 16 17  1  0  0  0  0
 17 18  2  0  0  0  0
 18 19  1  0  0  0  0
 19 20  1  0  0  0  0
 19 26  2  0  0  0  0
 20 21  2  0  0  0  0
 20 22  1  0  0  0  0
 22 23  1  0  0  0  0
 23 24  1  0  0  0  0
 24 25  1  0  0  0  0
 25 23  1  0  0  0  0
 26 15  1  0  0  0  0
 27  2  1  0  0  0  0
M  END
>  <CHROM.1>
23.12835152,-76.34944017,-0.43592032,154.15325760,-9.65700844,-69.89751146
42.13656979,-42.60705811,3.15103775,1.67754592,-0.94243622,2.71255605

>  <Name>
design_3

>  <RI>
0

>  <Rbt.Current_Directory>
/home/ziqiaoxu/icml18-jtnn/VAEdesign

>  <Rbt.Executable>
rbdock ($Id: //depot/dev/client3/rdock/2013.1/src/exe/rbdock.cxx#4 $)

>  <Rbt.Library>
libRbt.so (2013.1, Build901 2013/11/27)

>  <Rbt.Parameter_File>
/export/apps/rDock/src/rDock_2013.1_src//data/scripts/dock.prm

>  <Rbt.Receptor>
/home/ziqiaoxu/icml18-jtnn/VAEdesign/targets/RdRp-SARS-CoV-2/pocket_docking.prm

>  <SCORE>
-20.3731

>  <SCORE.INTER>
-21.388

>  <SCORE.INTER.CONST>
1

>  <SCORE.INTER.POLAR>
-2.17722

>  <SCORE.INTER.REPUL>
0

>  <SCORE.INTER.ROT>
6

>  <SCORE.INTER.VDW>
-25.3854

>  <SCORE.INTER.norm>
-0.792148

>  <SCORE.INTRA>
1.01489

>  <SCORE.INTRA.DIHEDRAL>
-5.61496

>  <SCORE.INTRA.DIHEDRAL.0>
13.9424

>  <SCORE.INTRA.POLAR>
0

>  <SCORE.INTRA.POLAR.0>
0

>  <SCORE.INTRA.REPUL>
0

>  <SCORE.INTRA.REPUL.0>
0

>  <SCORE.INTRA.VDW>
3.82237

>  <SCORE.INTRA.VDW.0>
-1.77232

>  <SCORE.INTRA.norm>
0.0375886

>  <SCORE.RESTR>
0

>  <SCORE.RESTR.CAVITY>
0

>  <SCORE.RESTR.norm>
0

>  <SCORE.SYSTEM>
0

>  <SCORE.SYSTEM.CONST>
0

>  <SCORE.SYSTEM.DIHEDRAL>
0

>  <SCORE.SYSTEM.norm>
0

>  <SCORE.heavy>
27

>  <SCORE.norm>
-0.754559

$$$$
design_6
 OpenBabel05252019093D

 24 25  0  0  0  0  0  0  0  0999 V2000
   38.2520  -41.3521    7.2932 C   0  0  0  0  0  0  0  0  0  0  0  0
   39.0484  -40.7970    8.3390 N   0  0  0  0  0  0  0  0  0  0  0  0
   39.0407  -41.5983    9.5971 C   0  0  0  0  0  0  0  0  0  0  0  0
   40.0004  -42.7288    9.3322 C   0  0  0  0  0  0  0  0  0  0  0  0
   40.9459  -42.6384    8.5161 O   0  0  0  0  0  0  0  0  0  0  0  0
   39.8450  -43.9687   10.0310 N   0  0  0  0  0  0  0  0  0  0  0  0
   40.7500  -45.0516    9.8015 C   0  0  0  0  0  0  0  0  0  0  0  0
   40.2520  -46.1284    8.9159 C   0  0  0  0  0  0  0  0  0  0  0  0
   39.0631  -46.7966    9.0981 C   0  0  0  0  0  0  0  0  0  0  0  0
   38.6615  -47.7757    8.2026 C   0  0  0  0  0  0  0  0  0  0  0  0
   39.4491  -48.0834    7.1267 C   0  0  0  0  0  0  0  0  0  0  0  0
   40.6391  -47.4008    6.9602 C   0  0  0  0  0  0  0  0  0  0  0  0
   41.0634  -46.4366    7.8183 C   0  0  0  0  0  0  0  0  0  0  0  0
   42.5777  -45.5784    7.5934 Cl  0  0  0  0  0  0  0  0  0  0  0  0
   39.8170  -39.6262    8.3288 C   0  0  0  0  0  0  0  0  0  0  0  0
   40.4262  -39.4059    9.4676 O   0  0  0  0  0  0  0  0  0  0  0  0
   40.0302  -38.6610    7.2880 C   0  0  0  0  0  0  0  0  0  0  0  0
   40.3476  -37.3495    7.4162 C   0  0  0  0  0  0  0  0  0  0  0  0
   40.5249  -36.5454    6.3351 N   0  0  0  0  0  0  0  0  0  0  0  0
   40.4059  -36.9616    5.0713 C   0  0  0  0  0  0  0  0  0  0  0  0
   40.5799  -36.1777    4.0993 O   0  0  0  0  0  0  0  0  0  0  0  0
   40.0852  -38.2831    4.8883 C   0  0  0  0  0  0  0  0  0  0  0  0
   39.9050  -38.9303    3.2528 Cl  0  0  0  0  0  0  0  0  0  0  0  0
   39.9011  -39.1155    5.9628 C   0  0  0  0  0  0  0  0  0  0  0  0
  1  2  1  0  0  0  0
  2  3  1  0  0  0  0
  2 15  1  0  0  0  0
  3  4  1  0  0  0  0
  4  5  2  0  0  0  0
  4  6  1  0  0  0  0
  6  7  1  0  0  0  0
  7  8  1  0  0  0  0
  8  9  2  0  0  0  0
  9 10  1  0  0  0  0
 10 11  2  0  0  0  0
 11 12  1  0  0  0  0
 12 13  2  0  0  0  0
 13 14  1  0  0  0  0
 13  8  1  0  0  0  0
 15 16  2  0  0  0  0
 15 17  1  0  0  0  0
 17 18  2  0  0  0  0
 18 19  1  0  0  0  0
 19 20  1  0  0  0  0
 20 21  2  0  0  0  0
 20 22  1  0  0  0  0
 22 23  1  0  0  0  0
 22 24  2  0  0  0  0
 24 17  1  0  0  0  0
M  END
>  <CHROM.1>
79.08300402,26.44653854,-101.42570300,-53.20137428,153.59324186,40.20733295
-41.93968763,7.29469020,1.76282896,1.42380916,-0.51940025

>  <Name>
design_6

>  <RI>
0

>  <Rbt.Current_Directory>
/home/ziqiaoxu/icml18-jtnn/VAEdesign

>  <Rbt.Executable>
rbdock ($Id: //depot/dev/client3/rdock/2013.1/src/exe/rbdock.cxx#4 $)

>  <Rbt.Library>
libRbt.so (2013.1, Build901 2013/11/27)

>  <Rbt.Parameter_File>
/export/apps/rDock/src/rDock_2013.1_src//data/scripts/dock.prm

>  <Rbt.Receptor>
/home/ziqiaoxu/icml18-jtnn/VAEdesign/targets/RdRp-SARS-CoV-2/pocket_docking.prm

>  <SCORE>
-20.6201

>  <SCORE.INTER>
-22.3148

>  <SCORE.INTER.CONST>
1

>  <SCORE.INTER.POLAR>
-2.1566

>  <SCORE.INTER.REPUL>
0

>  <SCORE.INTER.ROT>
5

>  <SCORE.INTER.VDW>
-25.3824

>  <SCORE.INTER.norm>
-0.929783

>  <SCORE.INTRA>
0.677771

>  <SCORE.INTRA.DIHEDRAL>
2.53445

>  <SCORE.INTRA.DIHEDRAL.0>
4.45794

>  <SCORE.INTRA.POLAR>
0

>  <SCORE.INTRA.POLAR.0>
0

>  <SCORE.INTRA.REPUL>
0

>  <SCORE.INTRA.REPUL.0>
0

>  <SCORE.INTRA.VDW>
-0.589454

>  <SCORE.INTRA.VDW.0>
-0.771631

>  <SCORE.INTRA.norm>
0.0282405

>  <SCORE.RESTR>
1.01689

>  <SCORE.RESTR.CAVITY>
1.01689

>  <SCORE.RESTR.norm>
0.0423705

>  <SCORE.SYSTEM>
0

>  <SCORE.SYSTEM.CONST>
0

>  <SCORE.SYSTEM.DIHEDRAL>
0

>  <SCORE.SYSTEM.norm>
0

>  <SCORE.heavy>
24

>  <SCORE.norm>
-0.859172

$$$$
design_14
 OpenBabel05252019093D

 28 30  0  0  0  0  0  0  0  0999 V2000
   40.8400  -38.5229    1.4389 C   0  0  0  0  0  0  0  0  0  0  0  0
   40.5170  -38.6102    2.8873 C   0  0  0  0  0  0  0  0  0  0  0  0
   40.1107  -37.5192    3.6085 C   0  0  0  0  0  0  0  0  0  0  0  0
   39.9102  -37.9791    4.8886 C   0  0  0  0  0  0  0  0  0  0  0  0
   39.4619  -37.1622    6.0466 C   0  0  0  0  0  0  0  0  0  0  0  0
   40.1889  -39.3106    4.9412 N   0  0  0  0  0  0  0  0  0  0  0  0
   40.0671  -40.0851    6.1491 C   0  0  0  0  0  0  0  0  0  0  0  0
   41.1090  -40.8392    6.6202 C   0  0  0  0  0  0  0  0  0  0  0  0
   40.9934  -41.5140    7.8354 C   0  0  0  0  0  0  0  0  0  0  0  0
   39.8385  -41.4449    8.5942 C   0  0  0  0  0  0  0  0  0  0  0  0
   39.7616  -42.0435    9.9438 C   0  0  0  0  0  0  0  0  0  0  0  0
   39.4180  -43.4113   10.0138 N   0  0  0  0  0  0  0  0  0  0  0  0
   39.7764  -44.4844    9.1877 C   0  0  0  0  0  0  0  0  0  0  0  0
   40.5594  -44.3268    8.2271 O   0  0  0  0  0  0  0  0  0  0  0  0
   39.2857  -45.8268    9.3940 N   0  0  0  0  0  0  0  0  0  0  0  0
   39.6713  -46.9932    8.7409 C   0  0  0  0  0  0  0  0  0  0  0  0
   38.7262  -47.7797    7.9074 C   0  0  2  0  0  0  0  0  0  0  0  0
   39.2193  -48.9813    7.4561 O   0  0  0  0  0  0  0  0  0  0  0  0
   38.2299  -46.9837    6.7644 C   0  0  0  0  0  0  0  0  0  0  0  0
   37.0399  -46.3145    6.8982 C   0  0  0  0  0  0  0  0  0  0  0  0
   36.5188  -45.5480    5.8468 C   0  0  0  0  0  0  0  0  0  0  0  0
   37.2188  -45.4699    4.6636 C   0  0  0  0  0  0  0  0  0  0  0  0
   38.4074  -46.1351    4.5194 C   0  0  0  0  0  0  0  0  0  0  0  0
   38.8948  -46.8909    5.5934 C   0  0  0  0  0  0  0  0  0  0  0  0
   40.0603  -47.5248    5.4009 F   0  0  0  0  0  0  0  0  0  0  0  0
   38.7979  -40.6840    8.0983 C   0  0  0  0  0  0  0  0  0  0  0  0
   38.9178  -40.0233    6.9042 C   0  0  0  0  0  0  0  0  0  0  0  0
   40.5471  -39.6560    3.7342 N   0  0  0  0  0  0  0  0  0  0  0  0
  1  2  1  0  0  0  0
  2  3  1  0  0  0  0
  3  4  2  0  0  0  0
  4  5  1  0  0  0  0
  4  6  1  0  0  0  0
  6  7  1  0  0  0  0
  6 28  1  0  0  0  0
  7  8  2  0  0  0  0
  8  9  1  0  0  0  0
  9 10  2  0  0  0  0
 10 11  1  0  0  0  0
 10 26  1  0  0  0  0
 11 12  1  0  0  0  0
 12 13  1  0  0  0  0
 13 14  2  0  0  0  0
 13 15  1  0  0  0  0
 15 16  1  0  0  0  0
 17 16  1  0  0  0  0
 17 18  1  6  0  0  0
 17 19  1  0  0  0  0
 19 20  2  0  0  0  0
 20 21  1  0  0  0  0
 21 22  2  0  0  0  0
 22 23  1  0  0  0  0
 23 24  2  0  0  0  0
 24 25  1  0  0  0  0
 24 19  1  0  0  0  0
 26 27  2  0  0  0  0
 27  7  1  0  0  0  0
 28  2  2  0  0  0  0
M  END
>  <CHROM.1>
-126.37337876,-85.94088395,38.01727472,-116.77054015,-172.97593608,62.04481344
-94.59673426,39.45483349,-43.04420889,6.53469422,0.69501423,-1.37460890,-1.18233552

>  <Name>
design_14

>  <RI>
0

>  <Rbt.Current_Directory>
/home/ziqiaoxu/icml18-jtnn/VAEdesign

>  <Rbt.Executable>
rbdock ($Id: //depot/dev/client3/rdock/2013.1/src/exe/rbdock.cxx#4 $)

>  <Rbt.Library>
libRbt.so (2013.1, Build901 2013/11/27)

>  <Rbt.Parameter_File>
/export/apps/rDock/src/rDock_2013.1_src//data/scripts/dock.prm

>  <Rbt.Receptor>
/home/ziqiaoxu/icml18-jtnn/VAEdesign/targets/RdRp-SARS-CoV-2/pocket_docking.prm

>  <SCORE>
-28.9483

>  <SCORE.INTER>
-20.8836

>  <SCORE.INTER.CONST>
1

>  <SCORE.INTER.POLAR>
-2.06836

>  <SCORE.INTER.REPUL>
0.0261294

>  <SCORE.INTER.ROT>
6

>  <SCORE.INTER.VDW>
-25.3819

>  <SCORE.INTER.norm>
-0.745844

>  <SCORE.INTRA>
-8.06464

>  <SCORE.INTRA.DIHEDRAL>
-8.78343

>  <SCORE.INTRA.DIHEDRAL.0>
20.8338

>  <SCORE.INTRA.POLAR>
0

>  <SCORE.INTRA.POLAR.0>
0

>  <SCORE.INTRA.REPUL>
0

>  <SCORE.INTRA.REPUL.0>
0

>  <SCORE.INTRA.VDW>
-3.67293

>  <SCORE.INTRA.VDW.0>
1.21546

>  <SCORE.INTRA.norm>
-0.288023

>  <SCORE.RESTR>
0

>  <SCORE.RESTR.CAVITY>
0

>  <SCORE.RESTR.norm>
0

>  <SCORE.SYSTEM>
0

>  <SCORE.SYSTEM.CONST>
0

>  <SCORE.SYSTEM.DIHEDRAL>
0

>  <SCORE.SYSTEM.norm>
0

>  <SCORE.heavy>
28

>  <SCORE.norm>
-1.03387

$$$$
design_13
 OpenBabel05252019093D

 24 26  0  0  0  0  0  0  0  0999 V2000
   38.9415  -48.9349    6.3404 C   0  0  0  0  0  0  0  0  0  0  0  0
   39.4405  -47.9377    7.2979 C   0  0  0  0  0  0  0  0  0  0  0  0
   38.6634  -47.6495    8.4072 C   0  0  0  0  0  0  0  0  0  0  0  0
   39.0559  -46.7394    9.3377 C   0  0  0  0  0  0  0  0  0  0  0  0
   40.2471  -46.0857    9.1846 C   0  0  0  0  0  0  0  0  0  0  0  0
   41.0385  -46.3562    8.0876 C   0  0  0  0  0  0  0  0  0  0  0  0
   42.3154  -45.6188    7.9753 C   0  0  0  0  0  0  0  0  0  0  0  0
   43.1227  -45.5278    6.9206 N   0  0  0  0  0  0  0  0  0  0  0  0
   44.1924  -44.7605    7.2188 C   0  0  0  0  0  0  0  0  0  0  0  0
   45.3221  -44.4116    6.3236 C   0  0  0  0  0  0  0  0  0  0  0  0
   45.6029  -45.5140    5.4066 N   0  0  0  0  0  0  0  0  0  0  0  0
   45.0172  -45.5379    4.1105 C   0  0  0  0  0  0  0  0  0  0  0  0
   43.7029  -45.0692    3.9646 C   0  0  0  0  0  0  0  0  0  0  0  0
   43.1041  -45.0415    2.7322 C   0  0  0  0  0  0  0  0  0  0  0  0
   43.7550  -45.4653    1.5962 C   0  0  0  0  0  0  0  0  0  0  0  0
   45.0783  -45.9404    1.7211 C   0  0  0  0  0  0  0  0  0  0  0  0
   45.6931  -46.3554    0.4837 C   0  0  0  0  0  0  0  0  0  0  0  0
   44.9530  -46.9494   -0.5621 N   0  0  0  0  0  0  0  0  0  0  0  0
   46.9568  -46.1882    0.3182 O   0  0  0  0  0  0  0  0  0  0  0  0
   45.6577  -45.9625    2.9597 C   0  0  0  0  0  0  0  0  0  0  0  0
   47.0234  -46.5175    3.1064 C   0  0  0  0  0  0  0  0  0  0  0  0
   43.9988  -44.3794    8.5284 C   0  0  0  0  0  0  0  0  0  0  0  0
   42.8629  -44.9179    8.9360 O   0  0  0  0  0  0  0  0  0  0  0  0
   40.6441  -47.2665    7.1583 C   0  0  0  0  0  0  0  0  0  0  0  0
  1  2  1  0  0  0  0
  2  3  2  0  0  0  0
  3  4  1  0  0  0  0
  4  5  2  0  0  0  0
  5  6  1  0  0  0  0
  6  7  1  0  0  0  0
  6 24  2  0  0  0  0
  7  8  2  0  0  0  0
  8  9  1  0  0  0  0
  9 10  1  0  0  0  0
  9 22  2  0  0  0  0
 10 11  1  0  0  0  0
 11 12  1  0  0  0  0
 12 13  2  0  0  0  0
 13 14  1  0  0  0  0
 14 15  2  0  0  0  0
 15 16  1  0  0  0  0
 16 17  1  0  0  0  0
 16 20  2  0  0  0  0
 17 18  1  0  0  0  0
 17 19  2  0  0  0  0
 20 21  1  0  0  0  0
 20 12  1  0  0  0  0
 22 23  1  0  0  0  0
 23  7  1  0  0  0  0
 24  2  1  0  0  0  0
M  END
>  <CHROM.1>
-167.16962251,-33.18934622,94.01708938,-36.96888206,-33.62735990,43.24143248
-46.06084599,5.25525054,2.32002170,0.47137777,1.25997122

>  <Name>
design_13

>  <RI>
0

>  <Rbt.Current_Directory>
/home/ziqiaoxu/icml18-jtnn/VAEdesign

>  <Rbt.Executable>
rbdock ($Id: //depot/dev/client3/rdock/2013.1/src/exe/rbdock.cxx#4 $)

>  <Rbt.Library>
libRbt.so (2013.1, Build901 2013/11/27)

>  <Rbt.Parameter_File>
/export/apps/rDock/src/rDock_2013.1_src//data/scripts/dock.prm

>  <Rbt.Receptor>
/home/ziqiaoxu/icml18-jtnn/VAEdesign/targets/RdRp-SARS-CoV-2/pocket_docking.prm

>  <SCORE>
-21.5136

>  <SCORE.INTER>
-23.215

>  <SCORE.INTER.CONST>
1

>  <SCORE.INTER.POLAR>
-2.42245

>  <SCORE.INTER.REPUL>
0

>  <SCORE.INTER.ROT>
5

>  <SCORE.INTER.VDW>
-25.3786

>  <SCORE.INTER.norm>
-0.96729

>  <SCORE.INTRA>
1.70138

>  <SCORE.INTRA.DIHEDRAL>
8.40153

>  <SCORE.INTRA.DIHEDRAL.0>
4.32005

>  <SCORE.INTRA.POLAR>
0

>  <SCORE.INTRA.POLAR.0>
0

>  <SCORE.INTRA.REPUL>
0

>  <SCORE.INTRA.REPUL.0>
0

>  <SCORE.INTRA.VDW>
-2.49938

>  <SCORE.INTRA.VDW.0>
1.94262

>  <SCORE.INTRA.norm>
0.070891

>  <SCORE.RESTR>
0

>  <SCORE.RESTR.CAVITY>
0

>  <SCORE.RESTR.norm>
0

>  <SCORE.SYSTEM>
0

>  <SCORE.SYSTEM.CONST>
0

>  <SCORE.SYSTEM.DIHEDRAL>
0

>  <SCORE.SYSTEM.norm>
0

>  <SCORE.heavy>
24

>  <SCORE.norm>
-0.896399

$$$$
design_6
 OpenBabel05252019093D

 26 28  0  0  0  0  0  0  0  0999 V2000
   40.1011  -46.3284   10.2500 N   0  0  0  0  0  0  0  0  0  0  0  0
   40.9171  -45.9770    9.1474 C   0  0  0  0  0  0  0  0  0  0  0  0
   41.8798  -45.2021    9.3115 O   0  0  0  0  0  0  0  0  0  0  0  0
   40.6237  -46.5286    7.8169 C   0  0  0  0  0  0  0  0  0  0  0  0
   39.6124  -47.4447    7.6236 C   0  0  0  0  0  0  0  0  0  0  0  0
   39.3403  -47.9612    6.3670 C   0  0  0  0  0  0  0  0  0  0  0  0
   40.0905  -47.5594    5.2713 C   0  0  0  0  0  0  0  0  0  0  0  0
   41.1070  -46.6450    5.4372 C   0  0  0  0  0  0  0  0  0  0  0  0
   41.8965  -46.2200    4.2789 C   0  0  0  0  0  0  0  0  0  0  0  0
   41.4777  -45.0105    3.6901 O   0  0  0  0  0  0  0  0  0  0  0  0
   41.9495  -44.5200    2.4844 C   0  0  0  0  0  0  0  0  0  0  0  0
   42.7655  -45.2381    1.8523 O   0  0  0  0  0  0  0  0  0  0  0  0
   41.4944  -43.1939    1.9782 C   0  0  0  0  0  0  0  0  0  0  0  0
   42.3200  -42.0968    2.5908 C   0  0  0  0  0  0  0  0  0  0  0  0
   41.7884  -40.7945    2.4226 N   0  0  0  0  0  0  0  0  0  0  0  0
   41.8112  -40.2218    1.2063 C   0  0  0  0  0  0  0  0  0  0  0  0
   41.3049  -38.9662    1.0159 N   0  0  0  0  0  0  0  0  0  0  0  0
   40.7725  -38.2590    2.0094 C   0  0  0  0  0  0  0  0  0  0  0  0
   40.2521  -36.9869    1.8495 C   0  0  0  0  0  0  0  0  0  0  0  0
   39.7128  -36.3038    2.9194 C   0  0  0  0  0  0  0  0  0  0  0  0
   39.6735  -36.8614    4.1799 C   0  0  0  0  0  0  0  0  0  0  0  0
   40.1935  -38.1306    4.3358 C   0  0  0  0  0  0  0  0  0  0  0  0
   40.7355  -38.8228    3.2706 C   0  0  0  0  0  0  0  0  0  0  0  0
   41.2554  -40.0910    3.4254 C   0  0  0  0  0  0  0  0  0  0  0  0
   41.2233  -40.5983    4.5555 O   0  0  0  0  0  0  0  0  0  0  0  0
   41.3535  -46.1463    6.7127 C   0  0  0  0  0  0  0  0  0  0  0  0
  1  2  1  0  0  0  0
  2  3  2  0  0  0  0
  2  4  1  0  0  0  0
  4  5  2  0  0  0  0
  5  6  1  0  0  0  0
  6  7  2  0  0  0  0
  7  8  1  0  0  0  0
  8  9  1  0  0  0  0
  8 26  2  0  0  0  0
  9 10  1  0  0  0  0
 10 11  1  0  0  0  0
 11 12  2  0  0  0  0
 11 13  1  0  0  0  0
 13 14  1  0  0  0  0
 14 15  1  0  0  0  0
 15 16  1  0  0  0  0
 16 17  2  0  0  0  0
 17 18  1  0  0  0  0
 18 19  2  0  0  0  0
 19 20  1  0  0  0  0
 20 21  2  0  0  0  0
 21 22  1  0  0  0  0
 22 23  2  0  0  0  0
 23 24  1  0  0  0  0
 23 18  1  0  0  0  0
 24 25  2  0  0  0  0
 24 15  1  0  0  0  0
 26  4  1  0  0  0  0
M  END
>  <CHROM.1>
-3.68047064,96.74479446,-170.37937266,3.12975311,84.10807262,-166.34237678
-71.31490125,41.01597272,-42.83548024,4.49159928,1.59377477,-1.27463384,2.63761740

>  <Name>
design_6

>  <RI>
0

>  <Rbt.Current_Directory>
/home/ziqiaoxu/icml18-jtnn/VAEdesign

>  <Rbt.Executable>
rbdock ($Id: //depot/dev/client3/rdock/2013.1/src/exe/rbdock.cxx#4 $)

>  <Rbt.Library>
libRbt.so (2013.1, Build901 2013/11/27)

>  <Rbt.Parameter_File>
/export/apps/rDock/src/rDock_2013.1_src//data/scripts/dock.prm

>  <Rbt.Receptor>
/home/ziqiaoxu/icml18-jtnn/VAEdesign/targets/RdRp-SARS-CoV-2/pocket_docking.prm

>  <SCORE>
-19.8967

>  <SCORE.INTER>
-19.8701

>  <SCORE.INTER.CONST>
1

>  <SCORE.INTER.POLAR>
-2.05291

>  <SCORE.INTER.REPUL>
0.0174945

>  <SCORE.INTER.ROT>
7

>  <SCORE.INTER.VDW>
-25.3776

>  <SCORE.INTER.norm>
-0.764234

>  <SCORE.INTRA>
-0.026594

>  <SCORE.INTRA.DIHEDRAL>
1.82093

>  <SCORE.INTRA.DIHEDRAL.0>
4.2177

>  <SCORE.INTRA.POLAR>
0

>  <SCORE.INTRA.POLAR.0>
0

>  <SCORE.INTRA.REPUL>
0

>  <SCORE.INTRA.REPUL.0>
0

>  <SCORE.INTRA.VDW>
-0.93706

>  <SCORE.INTRA.VDW.0>
0.356995

>  <SCORE.INTRA.norm>
-0.00102285

>  <SCORE.RESTR>
0

>  <SCORE.RESTR.CAVITY>
0

>  <SCORE.RESTR.norm>
0

>  <SCORE.SYSTEM>
0

>  <SCORE.SYSTEM.CONST>
0

>  <SCORE.SYSTEM.DIHEDRAL>
0

>  <SCORE.SYSTEM.norm>
0

>  <SCORE.heavy>
26

>  <SCORE.norm>
-0.765257

$$$$
design_17
 OpenBabel05252019093D

 26 29  0  0  0  0  0  0  0  0999 V2000
   41.6023  -36.4537    1.9666 C   0  0  0  0  0  0  0  0  0  0  0  0
   41.2633  -36.0050    3.3691 C   0  0  0  0  0  0  0  0  0  0  0  0
   40.4579  -37.0457    4.0207 C   0  0  0  0  0  0  0  0  0  0  0  0
   39.3777  -37.6553    3.5200 N   0  0  0  0  0  0  0  0  0  0  0  0
   38.9159  -38.5377    4.3932 N   0  0  0  0  0  0  0  0  0  0  0  0
   39.6933  -38.5209    5.4914 C   0  0  0  0  0  0  0  0  0  0  0  0
   39.5099  -39.3492    6.6738 C   0  0  0  0  0  0  0  0  0  0  0  0
   38.3328  -40.0457    6.8628 C   0  0  0  0  0  0  0  0  0  0  0  0
   38.1163  -40.8408    7.9660 C   0  0  0  0  0  0  0  0  0  0  0  0
   39.0696  -40.9734    8.9285 C   0  0  0  0  0  0  0  0  0  0  0  0
   38.9223  -41.7740   10.0914 N   0  0  0  0  0  0  0  0  0  0  0  0
   39.9152  -42.6960   10.5291 C   0  0  0  0  0  0  0  0  0  0  0  0
   40.1087  -43.8759    9.6569 C   0  0  0  0  0  0  0  0  0  0  0  0
   41.2226  -43.8170    8.8107 C   0  0  0  0  0  0  0  0  0  0  0  0
   41.5134  -44.8434    7.9484 C   0  0  0  0  0  0  0  0  0  0  0  0
   42.5080  -44.8275    7.1703 O   0  0  0  0  0  0  0  0  0  0  0  0
   40.6851  -45.9462    7.9255 C   0  0  0  0  0  0  0  0  0  0  0  0
   40.9377  -47.0171    7.0661 C   0  0  0  0  0  0  0  0  0  0  0  0
   40.0824  -48.0910    7.0824 C   0  0  0  0  0  0  0  0  0  0  0  0
   38.9892  -48.1162    7.9327 C   0  0  0  0  0  0  0  0  0  0  0  0
   38.7286  -47.0574    8.7910 C   0  0  0  0  0  0  0  0  0  0  0  0
   39.5960  -45.9731    8.7715 C   0  0  0  0  0  0  0  0  0  0  0  0
   39.3182  -44.9485    9.6223 N   0  0  0  0  0  0  0  0  0  0  0  0
   40.2611  -40.2626    8.7278 C   0  0  0  0  0  0  0  0  0  0  0  0
   40.4806  -39.4705    7.6318 C   0  0  0  0  0  0  0  0  0  0  0  0
   40.6287  -37.6078    5.2516 N   0  0  0  0  0  0  0  0  0  0  0  0
  1  2  1  0  0  0  0
  2  3  1  0  0  0  0
  3  4  2  0  0  0  0
  4  5  1  0  0  0  0
  5  6  1  0  0  0  0
  6  7  1  0  0  0  0
  6 26  2  0  0  0  0
  7  8  2  0  0  0  0
  8  9  1  0  0  0  0
  9 10  2  0  0  0  0
 10 11  1  0  0  0  0
 10 24  1  0  0  0  0
 11 12  1  0  0  0  0
 12 13  1  0  0  0  0
 13 14  2  0  0  0  0
 14 15  1  0  0  0  0
 15 16  2  0  0  0  0
 15 17  1  0  0  0  0
 17 18  2  0  0  0  0
 18 19  1  0  0  0  0
 19 20  2  0  0  0  0
 20 21  1  0  0  0  0
 21 22  2  0  0  0  0
 22 23  1  0  0  0  0
 22 17  1  0  0  0  0
 23 13  1  0  0  0  0
 24 25  2  0  0  0  0
 25  7  1  0  0  0  0
 26  3  1  0  0  0  0
M  END
>  <CHROM.1>
-49.03052875,-13.26568514,131.84354917,-68.43438660,101.27096144,40.01766901
-41.93792193,7.12616505,-1.50278147,-1.18272592,2.75180251

>  <Name>
design_17

>  <RI>
0

>  <Rbt.Current_Directory>
/home/ziqiaoxu/icml18-jtnn/VAEdesign

>  <Rbt.Executable>
rbdock ($Id: //depot/dev/client3/rdock/2013.1/src/exe/rbdock.cxx#4 $)

>  <Rbt.Library>
libRbt.so (2013.1, Build901 2013/11/27)

>  <Rbt.Parameter_File>
/export/apps/rDock/src/rDock_2013.1_src//data/scripts/dock.prm

>  <Rbt.Receptor>
/home/ziqiaoxu/icml18-jtnn/VAEdesign/targets/RdRp-SARS-CoV-2/pocket_docking.prm

>  <SCORE>
-18.1556

>  <SCORE.INTER>
-20.9842

>  <SCORE.INTER.CONST>
1

>  <SCORE.INTER.POLAR>
-2.13768

>  <SCORE.INTER.REPUL>
0.252273

>  <SCORE.INTER.ROT>
5

>  <SCORE.INTER.VDW>
-25.3774

>  <SCORE.INTER.norm>
-0.807083

>  <SCORE.INTRA>
2.82855

>  <SCORE.INTRA.DIHEDRAL>
7.73227

>  <SCORE.INTRA.DIHEDRAL.0>
4.50771

>  <SCORE.INTRA.POLAR>
0

>  <SCORE.INTRA.POLAR.0>
0

>  <SCORE.INTRA.REPUL>
0

>  <SCORE.INTRA.REPUL.0>
0

>  <SCORE.INTRA.VDW>
-1.03759

>  <SCORE.INTRA.VDW.0>
-0.633839

>  <SCORE.INTRA.norm>
0.10879

>  <SCORE.RESTR>
0

>  <SCORE.RESTR.CAVITY>
0

>  <SCORE.RESTR.norm>
0

>  <SCORE.SYSTEM>
0

>  <SCORE.SYSTEM.CONST>
0

>  <SCORE.SYSTEM.DIHEDRAL>
0

>  <SCORE.SYSTEM.norm>
0

>  <SCORE.heavy>
26

>  <SCORE.norm>
-0.698293

$$$$
design_0
 OpenBabel05252019093D

 22 23  0  0  0  0  0  0  0  0999 V2000
   39.0687  -49.0658    6.7171 C   0  0  0  0  0  0  0  0  0  0  0  0
   39.7147  -47.9218    7.4003 C   0  0  0  0  0  0  0  0  0  0  0  0
   39.4018  -47.4296    8.6464 C   0  0  0  0  0  0  0  0  0  0  0  0
   40.2351  -46.3847    8.8786 C   0  0  0  0  0  0  0  0  0  0  0  0
   40.3035  -45.5152   10.0790 C   0  0  0  0  0  0  0  0  0  0  0  0
   41.0556  -46.2136    7.8143 N   0  0  0  0  0  0  0  0  0  0  0  0
   42.1158  -45.2596    7.6624 C   0  0  0  0  0  0  0  0  0  0  0  0
   43.3821  -45.6696    7.0091 C   0  0  0  0  0  0  0  0  0  0  0  0
   44.3973  -44.6221    6.7936 C   0  0  0  0  0  0  0  0  0  0  0  0
   45.6271  -45.0466    6.2133 N   0  0  0  0  0  0  0  0  0  0  0  0
   45.7125  -45.5471    4.8638 C   0  0  0  0  0  0  0  0  0  0  0  0
   44.6310  -45.5779    4.2522 O   0  0  0  0  0  0  0  0  0  0  0  0
   46.9434  -45.9543    4.3313 N   0  0  0  0  0  0  0  0  0  0  0  0
   47.1867  -46.4566    3.0531 C   0  0  0  0  0  0  0  0  0  0  0  0
   46.3218  -46.3834    1.9885 C   0  0  0  0  0  0  0  0  0  0  0  0
   46.6291  -46.9121    0.7205 C   0  0  0  0  0  0  0  0  0  0  0  0
   45.4782  -46.7863   -0.6030 Cl  0  0  0  0  0  0  0  0  0  0  0  0
   47.8299  -47.5328    0.4987 C   0  0  0  0  0  0  0  0  0  0  0  0
   48.7140  -47.6205    1.5448 C   0  0  0  0  0  0  0  0  0  0  0  0
   48.4053  -47.1016    2.7785 C   0  0  0  0  0  0  0  0  0  0  0  0
   49.3161  -47.1965    3.8411 O   0  0  0  0  0  0  0  0  0  0  0  0
   40.7127  -47.1661    6.9311 N   0  0  0  0  0  0  0  0  0  0  0  0
  1  2  1  0  0  0  0
  2  3  1  0  0  0  0
  3  4  2  0  0  0  0
  4  5  1  0  0  0  0
  4  6  1  0  0  0  0
  6  7  1  0  0  0  0
  6 22  1  0  0  0  0
  7  8  1  0  0  0  0
  8  9  1  0  0  0  0
  9 10  1  0  0  0  0
 10 11  1  0  0  0  0
 11 12  2  0  0  0  0
 11 13  1  0  0  0  0
 13 14  1  0  0  0  0
 14 15  2  0  0  0  0
 15 16  1  0  0  0  0
 16 17  1  0  0  0  0
 16 18  2  0  0  0  0
 18 19  1  0  0  0  0
 19 20  2  0  0  0  0
 20 21  1  0  0  0  0
 20 14  1  0  0  0  0
 22  2  2  0  0  0  0
M  END
>  <CHROM.1>
139.93585535,175.70004476,177.58641070,66.16215807,14.65777932,32.05986248
44.32425769,-46.51691201,4.74072419,2.39975840,0.26848794,1.25989539

>  <Name>
design_0

>  <RI>
0

>  <Rbt.Current_Directory>
/home/ziqiaoxu/icml18-jtnn/VAEdesign

>  <Rbt.Executable>
rbdock ($Id: //depot/dev/client3/rdock/2013.1/src/exe/rbdock.cxx#4 $)

>  <Rbt.Library>
libRbt.so (2013.1, Build901 2013/11/27)

>  <Rbt.Parameter_File>
/export/apps/rDock/src/rDock_2013.1_src//data/scripts/dock.prm

>  <Rbt.Receptor>
/home/ziqiaoxu/icml18-jtnn/VAEdesign/targets/RdRp-SARS-CoV-2/pocket_docking.prm

>  <SCORE>
-16.7425

>  <SCORE.INTER>
-19.6817

>  <SCORE.INTER.CONST>
1

>  <SCORE.INTER.POLAR>
-1.384

>  <SCORE.INTER.REPUL>
0

>  <SCORE.INTER.ROT>
5

>  <SCORE.INTER.VDW>
-25.376

>  <SCORE.INTER.norm>
-0.894621

>  <SCORE.INTRA>
2.93913

>  <SCORE.INTRA.DIHEDRAL>
2.08648

>  <SCORE.INTRA.DIHEDRAL.0>
3.58098

>  <SCORE.INTRA.POLAR>
0.0375142

>  <SCORE.INTRA.POLAR.0>
-0.0375142

>  <SCORE.INTRA.REPUL>
0

>  <SCORE.INTRA.REPUL.0>
0

>  <SCORE.INTRA.VDW>
1.76834

>  <SCORE.INTRA.VDW.0>
-2.34663

>  <SCORE.INTRA.norm>
0.133597

>  <SCORE.RESTR>
0

>  <SCORE.RESTR.CAVITY>
0

>  <SCORE.RESTR.norm>
0

>  <SCORE.SYSTEM>
0

>  <SCORE.SYSTEM.CONST>
0

>  <SCORE.SYSTEM.DIHEDRAL>
0

>  <SCORE.SYSTEM.norm>
0

>  <SCORE.heavy>
22

>  <SCORE.norm>
-0.761024

$$$$
design_9
 OpenBabel05252019093D

 22 23  0  0  0  0  0  0  0  0999 V2000
   41.4676  -44.4936   10.7543 C   0  0  0  0  0  0  0  0  0  0  0  0
   40.8609  -45.4005    9.7491 C   0  0  0  0  0  0  0  0  0  0  0  0
   39.6739  -46.0497    9.9464 C   0  0  0  0  0  0  0  0  0  0  0  0
   39.1289  -46.8990    8.9768 C   0  0  0  0  0  0  0  0  0  0  0  0
   39.7974  -47.0924    7.7907 C   0  0  0  0  0  0  0  0  0  0  0  0
   39.1670  -48.0848    6.5244 S   0  0  0  0  0  0  0  0  0  0  0  0
   38.8396  -49.4666    7.0986 O   0  0  0  0  0  0  0  0  0  0  0  0
   40.2200  -48.3527    5.4716 O   0  0  0  0  0  0  0  0  0  0  0  0
   37.7152  -47.5329    5.8003 N   0  0  0  0  0  0  0  0  0  0  0  0
   37.3936  -46.1700    5.7702 C   0  0  0  0  0  0  0  0  0  0  0  0
   36.1030  -45.8115    5.4426 C   0  0  0  0  0  0  0  0  0  0  0  0
   35.7482  -44.4570    5.4334 C   0  0  0  0  0  0  0  0  0  0  0  0
   36.6645  -43.4617    5.7464 C   0  0  0  0  0  0  0  0  0  0  0  0
   36.3759  -42.1149    5.7552 O   0  0  0  0  0  0  0  0  0  0  0  0
   35.3986  -41.4500    6.4788 C   0  0  0  0  0  0  0  0  0  0  0  0
   34.1220  -41.8815    6.1726 F   0  0  0  0  0  0  0  0  0  0  0  0
   35.4422  -40.1093    6.0970 F   0  0  0  0  0  0  0  0  0  0  0  0
   37.9506  -43.8367    6.0711 C   0  0  0  0  0  0  0  0  0  0  0  0
   38.8537  -42.8771    6.3782 F   0  0  0  0  0  0  0  0  0  0  0  0
   38.2901  -45.2002    6.0751 C   0  0  0  0  0  0  0  0  0  0  0  0
   41.0045  -46.4275    7.5991 C   0  0  0  0  0  0  0  0  0  0  0  0
   41.5279  -45.5946    8.5634 C   0  0  0  0  0  0  0  0  0  0  0  0
  1  2  1  0  0  0  0
  2  3  2  0  0  0  0
  3  4  1  0  0  0  0
  4  5  2  0  0  0  0
  5  6  1  0  0  0  0
  5 21  1  0  0  0  0
  6  7  2  0  0  0  0
  6  8  2  0  0  0  0
  6  9  1  0  0  0  0
  9 10  1  0  0  0  0
 10 11  2  0  0  0  0
 11 12  1  0  0  0  0
 12 13  2  0  0  0  0
 13 14  1  0  0  0  0
 13 18  1  0  0  0  0
 14 15  1  0  0  0  0
 15 16  1  0  0  0  0
 15 17  1  0  0  0  0
 18 19  1  0  0  0  0
 18 20  2  0  0  0  0
 20 10  1  0  0  0  0
 21 22  2  0  0  0  0
 22  2  1  0  0  0  0
M  END
>  <CHROM.1>
-53.78866406,27.58742784,-166.22317683,56.92474472,-60.85679456,38.21424315
-45.15893145,6.90805624,-0.65335251,-0.69675583,0.38000351

>  <Name>
design_9

>  <RI>
0

>  <Rbt.Current_Directory>
/home/ziqiaoxu/icml18-jtnn/VAEdesign

>  <Rbt.Executable>
rbdock ($Id: //depot/dev/client3/rdock/2013.1/src/exe/rbdock.cxx#4 $)

>  <Rbt.Library>
libRbt.so (2013.1, Build901 2013/11/27)

>  <Rbt.Parameter_File>
/export/apps/rDock/src/rDock_2013.1_src//data/scripts/dock.prm

>  <Rbt.Receptor>
/home/ziqiaoxu/icml18-jtnn/VAEdesign/targets/RdRp-SARS-CoV-2/pocket_docking.prm

>  <SCORE>
-20.9863

>  <SCORE.INTER>
-14.975

>  <SCORE.INTER.CONST>
1

>  <SCORE.INTER.POLAR>
0

>  <SCORE.INTER.REPUL>
0

>  <SCORE.INTER.ROT>
5

>  <SCORE.INTER.VDW>
-25.375

>  <SCORE.INTER.norm>
-0.68068

>  <SCORE.INTRA>
-6.01136

>  <SCORE.INTRA.DIHEDRAL>
-11.8709

>  <SCORE.INTRA.DIHEDRAL.0>
18.3364

>  <SCORE.INTRA.POLAR>
0

>  <SCORE.INTRA.POLAR.0>
0

>  <SCORE.INTRA.REPUL>
0

>  <SCORE.INTRA.REPUL.0>
0

>  <SCORE.INTRA.VDW>
-0.0759001

>  <SCORE.INTRA.VDW.0>
-2.61919

>  <SCORE.INTRA.norm>
-0.273243

>  <SCORE.RESTR>
0

>  <SCORE.RESTR.CAVITY>
0

>  <SCORE.RESTR.norm>
0

>  <SCORE.SYSTEM>
0

>  <SCORE.SYSTEM.CONST>
0

>  <SCORE.SYSTEM.DIHEDRAL>
0

>  <SCORE.SYSTEM.norm>
0

>  <SCORE.heavy>
22

>  <SCORE.norm>
-0.953923

$$$$
design_5
 OpenBabel05252019093D

 25 28  0  0  0  0  0  0  0  0999 V2000
   38.5872  -49.0922    6.4986 C   0  0  0  0  0  0  0  0  0  0  0  0
   38.8753  -48.1375    7.5897 C   0  0  0  0  0  0  0  0  0  0  0  0
   38.2311  -47.7467    8.6187 N   0  0  0  0  0  0  0  0  0  0  0  0
   38.8694  -46.8585    9.3479 N   0  0  0  0  0  0  0  0  0  0  0  0
   40.0286  -46.6340    8.7720 C   0  0  0  0  0  0  0  0  0  0  0  0
   41.1144  -45.6989    9.0425 C   0  0  0  0  0  0  0  0  0  0  0  0
   41.1514  -45.0993   10.3175 C   0  0  0  0  0  0  0  0  0  0  0  0
   42.1098  -44.2245   10.7149 C   0  0  0  0  0  0  0  0  0  0  0  0
   43.0843  -43.9157    9.8335 C   0  0  0  0  0  0  0  0  0  0  0  0
   43.1127  -44.4630    8.5571 C   0  0  0  0  0  0  0  0  0  0  0  0
   44.1879  -43.9872    7.6520 C   0  0  0  0  0  0  0  0  0  0  0  0
   44.9486  -45.0079    7.1224 N   0  0  0  0  0  0  0  0  0  0  0  0
   45.9914  -44.8020    6.1535 C   0  0  0  0  0  0  0  0  0  0  0  0
   45.4657  -45.1964    4.8358 C   0  0  0  0  0  0  0  0  0  0  0  0
   44.2243  -44.7196    4.4883 C   0  0  0  0  0  0  0  0  0  0  0  0
   43.6856  -44.9807    3.2791 C   0  0  0  0  0  0  0  0  0  0  0  0
   44.4500  -45.7614    2.3913 C   0  0  0  0  0  0  0  0  0  0  0  0
   45.6916  -46.2361    2.7521 C   0  0  0  0  0  0  0  0  0  0  0  0
   46.3649  -47.0734    1.8825 C   0  0  0  0  0  0  0  0  0  0  0  0
   47.5512  -47.6166    2.2938 C   0  0  0  0  0  0  0  0  0  0  0  0
   48.0433  -47.3342    3.5437 C   0  0  0  0  0  0  0  0  0  0  0  0
   47.3555  -46.5126    4.3477 N   0  0  0  0  0  0  0  0  0  0  0  0
   46.1763  -45.9382    3.9727 C   0  0  0  0  0  0  0  0  0  0  0  0
   42.1231  -45.3465    8.2007 C   0  0  0  0  0  0  0  0  0  0  0  0
   40.0806  -47.4591    7.6088 N   0  0  0  0  0  0  0  0  0  0  0  0
  1  2  1  0  0  0  0
  2  3  2  0  0  0  0
  3  4  1  0  0  0  0
  4  5  1  0  0  0  0
  5  6  1  0  0  0  0
  5 25  2  0  0  0  0
  6  7  2  0  0  0  0
  7  8  1  0  0  0  0
  8  9  2  0  0  0  0
  9 10  1  0  0  0  0
 10 11  1  0  0  0  0
 10 24  2  0  0  0  0
 11 12  1  0  0  0  0
 12 13  1  0  0  0  0
 13 14  1  0  0  0  0
 14 15  2  0  0  0  0
 15 16  1  0  0  0  0
 16 17  2  0  0  0  0
 17 18  1  0  0  0  0
 18 19  2  0  0  0  0
 19 20  1  0  0  0  0
 20 21  2  0  0  0  0
 21 22  1  0  0  0  0
 22 23  2  0  0  0  0
 23 14  1  0  0  0  0
 23 18  1  0  0  0  0
 24  6  1  0  0  0  0
 25  2  1  0  0  0  0
M  END
>  <CHROM.1>
17.68107798,125.62985000,175.83924728,-102.82551420,47.35362223,43.21897350
-46.01410274,6.42330063,2.57596120,0.45805321,1.00857488

>  <Name>
design_5

>  <RI>
0

>  <Rbt.Current_Directory>
/home/ziqiaoxu/icml18-jtnn/VAEdesign

>  <Rbt.Executable>
rbdock ($Id: //depot/dev/client3/rdock/2013.1/src/exe/rbdock.cxx#4 $)

>  <Rbt.Library>
libRbt.so (2013.1, Build901 2013/11/27)

>  <Rbt.Parameter_File>
/export/apps/rDock/src/rDock_2013.1_src//data/scripts/dock.prm

>  <Rbt.Receptor>
/home/ziqiaoxu/icml18-jtnn/VAEdesign/targets/RdRp-SARS-CoV-2/pocket_docking.prm

>  <SCORE>
-20.232

>  <SCORE.INTER>
-18.4387

>  <SCORE.INTER.CONST>
1

>  <SCORE.INTER.POLAR>
-1.01911

>  <SCORE.INTER.REPUL>
0

>  <SCORE.INTER.ROT>
5

>  <SCORE.INTER.VDW>
-25.3737

>  <SCORE.INTER.norm>
-0.737547

>  <SCORE.INTRA>
-1.79336

>  <SCORE.INTRA.DIHEDRAL>
-2.62506

>  <SCORE.INTRA.DIHEDRAL.0>
6.80016

>  <SCORE.INTRA.POLAR>
0

>  <SCORE.INTRA.POLAR.0>
0

>  <SCORE.INTRA.REPUL>
0

>  <SCORE.INTRA.REPUL.0>
0

>  <SCORE.INTRA.VDW>
-0.480837

>  <SCORE.INTRA.VDW.0>
-0.802628

>  <SCORE.INTRA.norm>
-0.0717346

>  <SCORE.RESTR>
0

>  <SCORE.RESTR.CAVITY>
0

>  <SCORE.RESTR.norm>
0

>  <SCORE.SYSTEM>
0

>  <SCORE.SYSTEM.CONST>
0

>  <SCORE.SYSTEM.DIHEDRAL>
0

>  <SCORE.SYSTEM.norm>
0

>  <SCORE.heavy>
25

>  <SCORE.norm>
-0.809282

$$$$
design_12
 OpenBabel05252019093D

 21 22  0  0  0  0  0  0  0  0999 V2000
   44.2167  -45.2810    6.9265 C   0  0  0  0  0  0  0  0  0  0  0  0
   43.3795  -45.0013    8.1190 C   0  0  0  0  0  0  0  0  0  0  0  0
   43.8327  -44.2547    9.0159 O   0  0  0  0  0  0  0  0  0  0  0  0
   42.0522  -45.5896    8.2369 C   0  0  0  0  0  0  0  0  0  0  0  0
   41.2728  -45.3095    9.3470 C   0  0  0  0  0  0  0  0  0  0  0  0
   40.0043  -45.8676    9.4661 C   0  0  0  0  0  0  0  0  0  0  0  0
   39.4823  -46.7109    8.4941 C   0  0  0  0  0  0  0  0  0  0  0  0
   38.1458  -47.2628    8.6805 C   0  0  0  0  0  0  0  0  0  0  0  0
   40.2605  -46.9856    7.3940 C   0  0  0  0  0  0  0  0  0  0  0  0
   39.5863  -48.0493    6.1801 S   0  0  0  0  0  0  0  0  0  0  0  0
   40.4682  -48.0515    4.9397 O   0  0  0  0  0  0  0  0  0  0  0  0
   39.6033  -49.4687    6.6717 O   0  0  0  0  0  0  0  0  0  0  0  0
   37.9744  -47.6016    5.7718 N   0  0  0  0  0  0  0  0  0  0  0  0
   37.5408  -46.2618    5.7180 C   0  0  0  0  0  0  0  0  0  0  0  0
   36.2530  -45.8753    5.5018 C   0  0  0  0  0  0  0  0  0  0  0  0
   35.8450  -44.5653    5.4497 C   0  0  0  0  0  0  0  0  0  0  0  0
   36.7545  -43.5646    5.6197 C   0  0  0  0  0  0  0  0  0  0  0  0
   38.0874  -43.9021    5.8442 C   0  0  0  0  0  0  0  0  0  0  0  0
   38.9790  -42.8994    6.0111 F   0  0  0  0  0  0  0  0  0  0  0  0
   38.4655  -45.2360    5.8909 C   0  0  0  0  0  0  0  0  0  0  0  0
   41.5256  -46.4271    7.2784 C   0  0  0  0  0  0  0  0  0  0  0  0
  1  2  1  0  0  0  0
  2  3  2  0  0  0  0
  2  4  1  0  0  0  0
  4  5  2  0  0  0  0
  5  6  1  0  0  0  0
  6  7  2  0  0  0  0
  7  8  1  0  0  0  0
  7  9  1  0  0  0  0
  9 10  1  0  0  0  0
  9 21  2  0  0  0  0
 10 11  2  0  0  0  0
 10 12  2  0  0  0  0
 10 13  1  0  0  0  0
 13 14  1  0  0  0  0
 14 15  2  0  0  0  0
 15 16  1  0  0  0  0
 16 17  2  0  0  0  0
 17 18  1  0  0  0  0
 18 19  1  0  0  0  0
 18 20  2  0  0  0  0
 20 14  1  0  0  0  0
 21  4  1  0  0  0  0
M  END
>  <CHROM.1>
-179.25322284,170.29925295,35.79027565,-174.63010573,39.72410649,-46.04700649
6.90350029,0.07358136,-0.41301778,0.07136112

>  <Name>
design_12

>  <RI>
0

>  <Rbt.Current_Directory>
/home/ziqiaoxu/icml18-jtnn/VAEdesign

>  <Rbt.Executable>
rbdock ($Id: //depot/dev/client3/rdock/2013.1/src/exe/rbdock.cxx#4 $)

>  <Rbt.Library>
libRbt.so (2013.1, Build901 2013/11/27)

>  <Rbt.Parameter_File>
/export/apps/rDock/src/rDock_2013.1_src//data/scripts/dock.prm

>  <Rbt.Receptor>
/home/ziqiaoxu/icml18-jtnn/VAEdesign/targets/RdRp-SARS-CoV-2/pocket_docking.prm

>  <SCORE>
-19.1518

>  <SCORE.INTER>
-15.9736

>  <SCORE.INTER.CONST>
1

>  <SCORE.INTER.POLAR>
0

>  <SCORE.INTER.REPUL>
0

>  <SCORE.INTER.ROT>
4

>  <SCORE.INTER.VDW>
-25.3736

>  <SCORE.INTER.norm>
-0.760648

>  <SCORE.INTRA>
-3.17823

>  <SCORE.INTRA.DIHEDRAL>
-6.44419

>  <SCORE.INTRA.DIHEDRAL.0>
8.96137

>  <SCORE.INTRA.POLAR>
0

>  <SCORE.INTRA.POLAR.0>
0

>  <SCORE.INTRA.REPUL>
0

>  <SCORE.INTRA.REPUL.0>
0

>  <SCORE.INTRA.VDW>
0.0438605

>  <SCORE.INTRA.VDW.0>
-0.903859

>  <SCORE.INTRA.norm>
-0.151344

>  <SCORE.RESTR>
0

>  <SCORE.RESTR.CAVITY>
0

>  <SCORE.RESTR.norm>
0

>  <SCORE.SYSTEM>
0

>  <SCORE.SYSTEM.CONST>
0

>  <SCORE.SYSTEM.DIHEDRAL>
0

>  <SCORE.SYSTEM.norm>
0

>  <SCORE.heavy>
21

>  <SCORE.norm>
-0.911992

$$$$
design_5
 OpenBabel05252019093D

 22 24  0  0  0  0  0  0  0  0999 V2000
   48.6038  -47.3068    3.4799 C   0  0  0  0  0  0  0  0  0  0  0  0
   47.1554  -46.2577    3.2029 S   0  0  0  0  0  0  0  0  0  0  0  0
   46.7126  -45.3657    4.6847 C   0  0  0  0  0  0  0  0  0  0  0  0
   47.5310  -44.3700    5.1924 C   0  0  0  0  0  0  0  0  0  0  0  0
   47.1869  -43.6867    6.3321 C   0  0  0  0  0  0  0  0  0  0  0  0
   45.9760  -44.0245    6.9748 C   0  0  0  0  0  0  0  0  0  0  0  0
   45.1380  -44.9959    6.5138 C   0  0  0  0  0  0  0  0  0  0  0  0
   43.9201  -45.3563    7.1348 N   0  0  0  0  0  0  0  0  0  0  0  0
   43.2869  -44.7894    8.2323 C   0  0  0  0  0  0  0  0  0  0  0  0
   43.7438  -43.8210    8.8595 O   0  0  0  0  0  0  0  0  0  0  0  0
   42.0084  -45.3217    8.7220 C   0  0  0  0  0  0  0  0  0  0  0  0
   41.4037  -44.8212    9.8531 C   0  0  0  0  0  0  0  0  0  0  0  0
   40.1865  -45.3480   10.2783 C   0  0  0  0  0  0  0  0  0  0  0  0
   39.6024  -46.3653    9.5600 C   0  0  0  0  0  0  0  0  0  0  0  0
   40.1762  -46.8975    8.4182 C   0  0  0  0  0  0  0  0  0  0  0  0
   39.5520  -47.9545    7.6873 N   0  0  0  0  0  0  0  0  0  0  0  0
   39.8966  -48.4335    6.4814 C   0  0  0  0  0  0  0  0  0  0  0  0
   39.0332  -49.4386    6.1626 N   0  0  0  0  0  0  0  0  0  0  0  0
   38.1812  -49.5608    7.1653 N   0  0  0  0  0  0  0  0  0  0  0  0
   38.5057  -48.6527    8.0887 N   0  0  0  0  0  0  0  0  0  0  0  0
   41.3780  -46.3557    8.0243 C   0  0  0  0  0  0  0  0  0  0  0  0
   45.5456  -45.6600    5.3426 C   0  0  0  0  0  0  0  0  0  0  0  0
  1  2  1  0  0  0  0
  2  3  1  0  0  0  0
  3  4  2  0  0  0  0
  4  5  1  0  0  0  0
  5  6  2  0  0  0  0
  6  7  1  0  0  0  0
  7  8  1  0  0  0  0
  7 22  2  0  0  0  0
  8  9  1  0  0  0  0
  9 10  2  0  0  0  0
  9 11  1  0  0  0  0
 11 12  2  0  0  0  0
 12 13  1  0  0  0  0
 13 14  2  0  0  0  0
 14 15  1  0  0  0  0
 15 16  1  0  0  0  0
 15 21  2  0  0  0  0
 16 17  1  0  0  0  0
 17 18  2  0  0  0  0
 18 19  1  0  0  0  0
 19 20  2  0  0  0  0
 20 16  1  0  0  0  0
 21 11  1  0  0  0  0
 22  3  1  0  0  0  0
M  END
>  <CHROM.1>
68.01767839,4.48434990,176.28780530,170.08428913,43.18780281,-46.16372793
6.86062014,0.12859155,-0.47924146,-2.32751541

>  <Name>
design_5

>  <RI>
0

>  <Rbt.Current_Directory>
/home/ziqiaoxu/icml18-jtnn/VAEdesign

>  <Rbt.Executable>
rbdock ($Id: //depot/dev/client3/rdock/2013.1/src/exe/rbdock.cxx#4 $)

>  <Rbt.Library>
libRbt.so (2013.1, Build901 2013/11/27)

>  <Rbt.Parameter_File>
/export/apps/rDock/src/rDock_2013.1_src//data/scripts/dock.prm

>  <Rbt.Receptor>
/home/ziqiaoxu/icml18-jtnn/VAEdesign/targets/RdRp-SARS-CoV-2/pocket_docking.prm

>  <SCORE>
-20.7762

>  <SCORE.INTER>
-15.9041

>  <SCORE.INTER.CONST>
1

>  <SCORE.INTER.POLAR>
0

>  <SCORE.INTER.REPUL>
0.0138218

>  <SCORE.INTER.ROT>
4

>  <SCORE.INTER.VDW>
-25.3732

>  <SCORE.INTER.norm>
-0.722915

>  <SCORE.INTRA>
-4.87204

>  <SCORE.INTRA.DIHEDRAL>
-10.4933

>  <SCORE.INTRA.DIHEDRAL.0>
13.0177

>  <SCORE.INTRA.POLAR>
0

>  <SCORE.INTRA.POLAR.0>
0

>  <SCORE.INTRA.REPUL>
0

>  <SCORE.INTRA.REPUL.0>
0

>  <SCORE.INTRA.VDW>
0.374603

>  <SCORE.INTRA.VDW.0>
-0.564546

>  <SCORE.INTRA.norm>
-0.221456

>  <SCORE.RESTR>
0

>  <SCORE.RESTR.CAVITY>
0

>  <SCORE.RESTR.norm>
0

>  <SCORE.SYSTEM>
0

>  <SCORE.SYSTEM.CONST>
0

>  <SCORE.SYSTEM.DIHEDRAL>
0

>  <SCORE.SYSTEM.norm>
0

>  <SCORE.heavy>
22

>  <SCORE.norm>
-0.944371

$$$$
design_14
 OpenBabel05252019093D

 24 26  0  0  0  0  0  0  0  0999 V2000
   38.8961  -49.0097    6.9375 C   0  0  0  0  0  0  0  0  0  0  0  0
   39.5989  -48.2877    5.8725 N   0  0  0  0  0  0  0  0  0  0  0  0
   39.5685  -46.8783    5.8145 C   0  0  0  0  0  0  0  0  0  0  0  0
   38.9154  -46.2594    6.7098 O   0  0  0  0  0  0  0  0  0  0  0  0
   40.2441  -46.1042    4.7856 C   0  0  0  0  0  0  0  0  0  0  0  0
   41.5308  -46.3926    4.4218 C   0  0  0  0  0  0  0  0  0  0  0  0
   42.1657  -45.6682    3.4554 C   0  0  0  0  0  0  0  0  0  0  0  0
   41.5121  -44.6408    2.8401 C   0  0  0  0  0  0  0  0  0  0  0  0
   42.1350  -43.8057    1.7841 C   0  0  0  0  0  0  0  0  0  0  0  0
   41.3537  -42.6597    1.4381 N   0  0  0  0  0  0  0  0  0  0  0  0
   41.9195  -41.3510    1.4587 C   0  0  0  0  0  0  0  0  0  0  0  0
   43.1097  -41.2437    1.7863 O   0  0  0  0  0  0  0  0  0  0  0  0
   41.1707  -40.1995    1.1217 N   0  0  0  0  0  0  0  0  0  0  0  0
   41.7550  -38.9050    1.1541 C   0  0  0  0  0  0  0  0  0  0  0  0
   40.9654  -37.9742    2.0445 C   0  0  0  0  0  0  0  0  0  0  0  0
   40.6242  -38.1564    3.3121 N   0  0  0  0  0  0  0  0  0  0  0  0
   39.9308  -37.2509    3.9284 C   0  0  0  0  0  0  0  0  0  0  0  0
   39.5073  -37.4020    5.3801 C   0  0  0  0  0  0  0  0  0  0  0  0
   40.0899  -38.5149    6.1889 C   0  0  0  0  0  0  0  0  0  0  0  0
   38.6659  -38.5892    5.7263 C   0  0  0  0  0  0  0  0  0  0  0  0
   39.5805  -36.1298    3.2211 C   0  0  0  0  0  0  0  0  0  0  0  0
   40.2773  -36.4505    1.6961 S   0  0  0  0  0  0  0  0  0  0  0  0
   40.2160  -44.3490    3.2054 C   0  0  0  0  0  0  0  0  0  0  0  0
   39.5862  -45.0711    4.1674 C   0  0  0  0  0  0  0  0  0  0  0  0
  1  2  1  0  0  0  0
  2  3  1  0  0  0  0
  3  4  2  0  0  0  0
  3  5  1  0  0  0  0
  5  6  2  0  0  0  0
  6  7  1  0  0  0  0
  7  8  2  0  0  0  0
  8  9  1  0  0  0  0
  8 23  1  0  0  0  0
  9 10  1  0  0  0  0
 10 11  1  0  0  0  0
 11 12  2  0  0  0  0
 11 13  1  0  0  0  0
 13 14  1  0  0  0  0
 14 15  1  0  0  0  0
 15 16  2  0  0  0  0
 16 17  1  0  0  0  0
 17 18  1  0  0  0  0
 17 21  2  0  0  0  0
 18 19  1  0  0  0  0
 19 20  1  0  0  0  0
 20 18  1  0  0  0  0
 21 22  1  0  0  0  0
 22 15  1  0  0  0  0
 23 24  2  0  0  0  0
 24  5  1  0  0  0  0
M  END
>  <CHROM.1>
-45.45068061,-170.36177785,126.62741562,-124.45270596,54.28123135,10.17427943
40.53513848,-41.88006897,3.58835351,1.64280751,-0.99902036,2.94859201

>  <Name>
design_14

>  <RI>
0

>  <Rbt.Current_Directory>
/home/ziqiaoxu/icml18-jtnn/VAEdesign

>  <Rbt.Executable>
rbdock ($Id: //depot/dev/client3/rdock/2013.1/src/exe/rbdock.cxx#4 $)

>  <Rbt.Library>
libRbt.so (2013.1, Build901 2013/11/27)

>  <Rbt.Parameter_File>
/export/apps/rDock/src/rDock_2013.1_src//data/scripts/dock.prm

>  <Rbt.Receptor>
/home/ziqiaoxu/icml18-jtnn/VAEdesign/targets/RdRp-SARS-CoV-2/pocket_docking.prm

>  <SCORE>
-17.2935

>  <SCORE.INTER>
-20.7566

>  <SCORE.INTER.CONST>
1

>  <SCORE.INTER.POLAR>
-1.99511

>  <SCORE.INTER.REPUL>
0

>  <SCORE.INTER.ROT>
6

>  <SCORE.INTER.VDW>
-25.3732

>  <SCORE.INTER.norm>
-0.864857

>  <SCORE.INTRA>
3.46304

>  <SCORE.INTRA.DIHEDRAL>
5.87182

>  <SCORE.INTRA.DIHEDRAL.0>
5.8223

>  <SCORE.INTRA.POLAR>
0

>  <SCORE.INTRA.POLAR.0>
0

>  <SCORE.INTRA.REPUL>
0

>  <SCORE.INTRA.REPUL.0>
0

>  <SCORE.INTRA.VDW>
0.527132

>  <SCORE.INTRA.VDW.0>
-1.99986

>  <SCORE.INTRA.norm>
0.144293

>  <SCORE.RESTR>
0

>  <SCORE.RESTR.CAVITY>
0

>  <SCORE.RESTR.norm>
0

>  <SCORE.SYSTEM>
0

>  <SCORE.SYSTEM.CONST>
0

>  <SCORE.SYSTEM.DIHEDRAL>
0

>  <SCORE.SYSTEM.norm>
0

>  <SCORE.heavy>
24

>  <SCORE.norm>
-0.720564

$$$$
design_15
 OpenBabel05252019093D

 24 25  0  0  0  0  0  0  0  0999 V2000
   40.4378  -47.2375    5.6959 C   0  0  0  0  0  0  0  0  0  0  0  0
   39.9203  -46.9139    7.0548 C   0  0  0  0  0  0  0  0  0  0  0  0
   38.6217  -47.4058    7.2856 C   0  0  0  0  0  0  0  0  0  0  0  0
   37.9486  -47.1893    8.4906 C   0  0  0  0  0  0  0  0  0  0  0  0
   38.6073  -46.4867    9.4505 C   0  0  0  0  0  0  0  0  0  0  0  0
   39.8787  -46.0038    9.2316 C   0  0  0  0  0  0  0  0  0  0  0  0
   40.5498  -45.2550   10.3217 C   0  0  0  0  0  0  0  0  0  0  0  0
   40.5634  -46.2160    8.0014 C   0  0  0  0  0  0  0  0  0  0  0  0
   41.8664  -45.7164    7.8712 N   0  0  0  0  0  0  0  0  0  0  0  0
   42.4290  -45.0318    6.7830 C   0  0  0  0  0  0  0  0  0  0  0  0
   41.9567  -44.7116    5.7049 O   0  0  0  0  0  0  0  0  0  0  0  0
   43.8909  -44.6094    6.9990 C   0  0  0  0  0  0  0  0  0  0  0  0
   44.7438  -45.4884    6.2589 N   0  0  0  0  0  0  0  0  0  0  0  0
   45.0603  -45.1090    4.8995 C   0  0  0  0  0  0  0  0  0  0  0  0
   44.6182  -44.1122    4.3407 O   0  0  0  0  0  0  0  0  0  0  0  0
   45.9433  -46.0375    4.2508 N   0  0  0  0  0  0  0  0  0  0  0  0
   46.3276  -46.0186    2.8912 C   0  0  0  0  0  0  0  0  0  0  0  0
   45.3022  -45.8695    1.8616 C   0  0  0  0  0  0  0  0  0  0  0  0
   43.9998  -45.5536    1.9717 C   0  0  0  0  0  0  0  0  0  0  0  0
   43.0961  -45.7316    0.9204 C   0  0  0  0  0  0  0  0  0  0  0  0
   43.4926  -46.2434   -0.2791 C   0  0  0  0  0  0  0  0  0  0  0  0
   44.8540  -46.5948   -0.4356 C   0  0  0  0  0  0  0  0  0  0  0  0
   45.6795  -46.3997    0.5988 C   0  0  0  0  0  0  0  0  0  0  0  0
   47.4506  -46.6885    0.4607 Cl  0  0  0  0  0  0  0  0  0  0  0  0
  1  2  1  0  0  0  0
  2  3  2  0  0  0  0
  3  4  1  0  0  0  0
  4  5  2  0  0  0  0
  5  6  1  0  0  0  0
  6  7  1  0  0  0  0
  6  8  2  0  0  0  0
  8  9  1  0  0  0  0
  8  2  1  0  0  0  0
  9 10  1  0  0  0  0
 10 11  2  0  0  0  0
 10 12  1  0  0  0  0
 12 13  1  0  0  0  0
 13 14  1  0  0  0  0
 14 15  2  0  0  0  0
 14 16  1  0  0  0  0
 16 17  1  0  0  0  0
 17 18  1  0  0  0  0
 18 19  2  0  0  0  0
 19 20  1  0  0  0  0
 20 21  2  0  0  0  0
 21 22  1  0  0  0  0
 22 23  2  0  0  0  0
 23 24  1  0  0  0  0
 23 18  1  0  0  0  0
M  END
>  <CHROM.1>
45.81777862,103.93398595,89.99510896,-48.09553950,10.44367814,43.12875894
-45.96667792,4.77941773,2.28606394,0.29063381,1.33084326

>  <Name>
design_15

>  <RI>
0

>  <Rbt.Current_Directory>
/home/ziqiaoxu/icml18-jtnn/VAEdesign

>  <Rbt.Executable>
rbdock ($Id: //depot/dev/client3/rdock/2013.1/src/exe/rbdock.cxx#4 $)

>  <Rbt.Library>
libRbt.so (2013.1, Build901 2013/11/27)

>  <Rbt.Parameter_File>
/export/apps/rDock/src/rDock_2013.1_src//data/scripts/dock.prm

>  <Rbt.Receptor>
/home/ziqiaoxu/icml18-jtnn/VAEdesign/targets/RdRp-SARS-CoV-2/pocket_docking.prm

>  <SCORE>
-21.2808

>  <SCORE.INTER>
-20.6133

>  <SCORE.INTER.CONST>
1

>  <SCORE.INTER.POLAR>
-1.65905

>  <SCORE.INTER.REPUL>
0

>  <SCORE.INTER.ROT>
5

>  <SCORE.INTER.VDW>
-25.3725

>  <SCORE.INTER.norm>
-0.858888

>  <SCORE.INTRA>
-0.667457

>  <SCORE.INTRA.DIHEDRAL>
-0.293314

>  <SCORE.INTRA.DIHEDRAL.0>
11.1652

>  <SCORE.INTRA.POLAR>
0

>  <SCORE.INTRA.POLAR.0>
0

>  <SCORE.INTRA.REPUL>
0

>  <SCORE.INTRA.REPUL.0>
0

>  <SCORE.INTRA.VDW>
-0.5208

>  <SCORE.INTRA.VDW.0>
-1.26187

>  <SCORE.INTRA.norm>
-0.0278107

>  <SCORE.RESTR>
0

>  <SCORE.RESTR.CAVITY>
0

>  <SCORE.RESTR.norm>
0

>  <SCORE.SYSTEM>
0

>  <SCORE.SYSTEM.CONST>
0

>  <SCORE.SYSTEM.DIHEDRAL>
0

>  <SCORE.SYSTEM.norm>
0

>  <SCORE.heavy>
24

>  <SCORE.norm>
-0.886699

$$$$
design_3
 OpenBabel05252019093D

 25 27  0  0  0  0  0  0  0  0999 V2000
   40.0096  -46.2553   10.6260 N   0  0  0  0  0  0  0  0  0  0  0  0
   40.5005  -45.2858    9.7118 C   0  0  0  0  0  0  0  0  0  0  0  0
   41.6530  -44.8747    9.9295 O   0  0  0  0  0  0  0  0  0  0  0  0
   39.6653  -44.8031    8.5644 C   0  0  0  0  0  0  0  0  0  0  0  0
   39.5964  -43.4625    8.2911 C   0  0  0  0  0  0  0  0  0  0  0  0
   40.2006  -42.3308    8.9184 N   0  0  0  0  0  0  0  0  0  0  0  0
   39.7963  -41.0320    8.4677 C   0  0  0  0  0  0  0  0  0  0  0  0
   38.9465  -40.9587    7.5604 O   0  0  0  0  0  0  0  0  0  0  0  0
   40.3671  -39.8249    9.0582 C   0  0  0  0  0  0  0  0  0  0  0  0
   41.1619  -39.0373    8.0692 C   0  0  0  0  0  0  0  0  0  0  0  0
   40.3657  -38.2406    7.0969 C   0  0  0  0  0  0  0  0  0  0  0  0
   39.6732  -39.0332    6.1854 O   0  0  0  0  0  0  0  0  0  0  0  0
   38.8878  -38.3557    5.2956 C   0  0  0  0  0  0  0  0  0  0  0  0
   39.6801  -37.6314    4.2514 C   0  0  0  0  0  0  0  0  0  0  0  0
   40.2409  -36.3966    4.5977 C   0  0  0  0  0  0  0  0  0  0  0  0
   40.9836  -35.6387    3.7219 C   0  0  0  0  0  0  0  0  0  0  0  0
   41.1623  -36.1557    2.4485 C   0  0  0  0  0  0  0  0  0  0  0  0
   40.6267  -37.3655    2.0710 C   0  0  0  0  0  0  0  0  0  0  0  0
   39.8930  -38.0824    2.9840 C   0  0  0  0  0  0  0  0  0  0  0  0
   38.5387  -43.4218    6.9162 S   0  0  0  0  0  0  0  0  0  0  0  0
   38.2350  -45.0752    6.7494 C   0  0  0  0  0  0  0  0  0  0  0  0
   38.9514  -45.6373    7.7545 C   0  0  0  0  0  0  0  0  0  0  0  0
   38.7317  -47.1533    7.6845 C   0  0  0  0  0  0  0  0  0  0  0  0
   38.2005  -47.4021    6.3154 C   0  0  0  0  0  0  0  0  0  0  0  0
   37.4982  -46.1183    5.9305 C   0  0  0  0  0  0  0  0  0  0  0  0
  1  2  1  0  0  0  0
  2  3  2  0  0  0  0
  2  4  1  0  0  0  0
  4  5  2  0  0  0  0
  5  6  1  0  0  0  0
  5 20  1  0  0  0  0
  6  7  1  0  0  0  0
  7  8  2  0  0  0  0
  7  9  1  0  0  0  0
  9 10  1  0  0  0  0
 10 11  1  0  0  0  0
 11 12  1  0  0  0  0
 12 13  1  0  0  0  0
 13 14  1  0  0  0  0
 14 15  2  0  0  0  0
 15 16  1  0  0  0  0
 16 17  2  0  0  0  0
 17 18  1  0  0  0  0
 18 19  2  0  0  0  0
 19 14  1  0  0  0  0
 20 21  1  0  0  0  0
 21 22  2  0  0  0  0
 22 23  1  0  0  0  0
 22  4  1  0  0  0  0
 23 24  1  0  0  0  0
 24 25  1  0  0  0  0
 25 21  1  0  0  0  0
M  END
>  <CHROM.1>
134.64946038,-173.08794839,115.56934648,76.67596728,-68.93615735,177.86717641
72.53249701,-80.41351097,39.68965326,-41.70789194,6.83994781,-1.83837006
-1.13279754,-0.69284943

>  <Name>
design_3

>  <RI>
0

>  <Rbt.Current_Directory>
/home/ziqiaoxu/icml18-jtnn/VAEdesign

>  <Rbt.Executable>
rbdock ($Id: //depot/dev/client3/rdock/2013.1/src/exe/rbdock.cxx#4 $)

>  <Rbt.Library>
libRbt.so (2013.1, Build901 2013/11/27)

>  <Rbt.Parameter_File>
/export/apps/rDock/src/rDock_2013.1_src//data/scripts/dock.prm

>  <Rbt.Receptor>
/home/ziqiaoxu/icml18-jtnn/VAEdesign/targets/RdRp-SARS-CoV-2/pocket_docking.prm

>  <SCORE>
-18.3257

>  <SCORE.INTER>
-20.3476

>  <SCORE.INTER.CONST>
1

>  <SCORE.INTER.POLAR>
-2.6623

>  <SCORE.INTER.REPUL>
0.135167

>  <SCORE.INTER.ROT>
8

>  <SCORE.INTER.VDW>
-25.3716

>  <SCORE.INTER.norm>
-0.813904

>  <SCORE.INTRA>
2.02191

>  <SCORE.INTRA.DIHEDRAL>
10.0144

>  <SCORE.INTRA.DIHEDRAL.0>
1.96826

>  <SCORE.INTRA.POLAR>
0.0336095

>  <SCORE.INTRA.POLAR.0>
-0.0336095

>  <SCORE.INTRA.REPUL>
0

>  <SCORE.INTRA.REPUL.0>
0

>  <SCORE.INTRA.VDW>
-3.09954

>  <SCORE.INTRA.VDW.0>
3.44248

>  <SCORE.INTRA.norm>
0.0808764

>  <SCORE.RESTR>
0

>  <SCORE.RESTR.CAVITY>
0

>  <SCORE.RESTR.norm>
0

>  <SCORE.SYSTEM>
0

>  <SCORE.SYSTEM.CONST>
0

>  <SCORE.SYSTEM.DIHEDRAL>
0

>  <SCORE.SYSTEM.norm>
0

>  <SCORE.heavy>
25

>  <SCORE.norm>
-0.733027

$$$$
design_4
 OpenBabel05252019093D

 26 28  0  0  0  0  0  0  0  0999 V2000
   33.2748  -40.9264    6.5065 C   0  0  0  0  0  0  0  0  0  0  0  0
   34.4130  -41.7657    6.2244 N   0  0  0  0  0  0  0  0  0  0  0  0
   35.7061  -41.6295    6.8347 C   0  0  0  0  0  0  0  0  0  0  0  0
   35.9518  -40.7624    7.6684 O   0  0  0  0  0  0  0  0  0  0  0  0
   36.7307  -42.5844    6.3886 C   0  0  0  0  0  0  0  0  0  0  0  0
   36.2415  -43.7314    5.7851 C   0  0  0  0  0  0  0  0  0  0  0  0
   37.1346  -44.6223    5.2723 C   0  0  0  0  0  0  0  0  0  0  0  0
   38.5093  -44.4263    5.3197 C   0  0  0  0  0  0  0  0  0  0  0  0
   39.3908  -45.4235    4.6023 C   0  0  0  0  0  0  0  0  0  0  0  0
   40.6235  -45.6740    4.7958 N   0  0  0  0  0  0  0  0  0  0  0  0
   41.9876  -45.9538    5.0032 C   0  0  0  0  0  0  0  0  0  0  0  0
   42.7518  -46.4214    4.1761 O   0  0  0  0  0  0  0  0  0  0  0  0
   42.6260  -45.7229    6.3402 C   0  0  0  0  0  0  0  0  0  0  0  0
   42.0053  -45.9399    7.5147 C   0  0  0  0  0  0  0  0  0  0  0  0
   40.7111  -46.4250    7.9664 C   0  0  0  0  0  0  0  0  0  0  0  0
   39.9738  -47.2248    7.0737 C   0  0  0  0  0  0  0  0  0  0  0  0
   38.6963  -47.5948    7.3190 C   0  0  0  0  0  0  0  0  0  0  0  0
   38.1099  -47.1769    8.4890 C   0  0  0  0  0  0  0  0  0  0  0  0
   38.8160  -46.3881    9.4001 C   0  0  0  0  0  0  0  0  0  0  0  0
   40.0944  -46.0287    9.1133 C   0  0  0  0  0  0  0  0  0  0  0  0
   42.9005  -45.4715    8.4567 N   0  0  0  0  0  0  0  0  0  0  0  0
   43.9426  -45.0176    7.9082 O   0  0  0  0  0  0  0  0  0  0  0  0
   43.8662  -45.1270    6.5462 C   0  0  0  0  0  0  0  0  0  0  0  0
   44.9389  -44.6462    5.6762 C   0  0  0  0  0  0  0  0  0  0  0  0
   38.9581  -43.2845    5.9290 C   0  0  0  0  0  0  0  0  0  0  0  0
   38.0629  -42.3478    6.4648 C   0  0  0  0  0  0  0  0  0  0  0  0
  1  2  1  0  0  0  0
  2  3  1  0  0  0  0
  3  4  2  0  0  0  0
  3  5  1  0  0  0  0
  5  6  2  0  0  0  0
  6  7  1  0  0  0  0
  7  8  2  0  0  0  0
  8  9  1  0  0  0  0
  8 25  1  0  0  0  0
  9 10  1  0  0  0  0
 10 11  1  0  0  0  0
 11 12  2  0  0  0  0
 11 13  1  0  0  0  0
 13 14  1  0  0  0  0
 14 15  1  0  0  0  0
 14 21  2  0  0  0  0
 15 16  2  0  0  0  0
 16 17  1  0  0  0  0
 17 18  2  0  0  0  0
 18 19  1  0  0  0  0
 19 20  2  0  0  0  0
 20 15  1  0  0  0  0
 21 22  1  0  0  0  0
 22 23  1  0  0  0  0
 23 24  1  0  0  0  0
 23 13  2  0  0  0  0
 25 26  2  0  0  0  0
 26  5  1  0  0  0  0
M  END
>  <CHROM.1>
-19.73844763,-158.72377724,-157.78042078,36.63222719,22.16200854,39.47821161
-44.66198570,6.62141946,-2.79532435,-0.32398494,2.40181998

>  <Name>
design_4

>  <RI>
0

>  <Rbt.Current_Directory>
/home/ziqiaoxu/icml18-jtnn/VAEdesign

>  <Rbt.Executable>
rbdock ($Id: //depot/dev/client3/rdock/2013.1/src/exe/rbdock.cxx#4 $)

>  <Rbt.Library>
libRbt.so (2013.1, Build901 2013/11/27)

>  <Rbt.Parameter_File>
/export/apps/rDock/src/rDock_2013.1_src//data/scripts/dock.prm

>  <Rbt.Receptor>
/home/ziqiaoxu/icml18-jtnn/VAEdesign/targets/RdRp-SARS-CoV-2/pocket_docking.prm

>  <SCORE>
-24.2732

>  <SCORE.INTER>
-20.5574

>  <SCORE.INTER.CONST>
1

>  <SCORE.INTER.POLAR>
-1.64305

>  <SCORE.INTER.REPUL>
0

>  <SCORE.INTER.ROT>
5

>  <SCORE.INTER.VDW>
-25.371

>  <SCORE.INTER.norm>
-0.790668

>  <SCORE.INTRA>
-3.71587

>  <SCORE.INTRA.DIHEDRAL>
-6.85913

>  <SCORE.INTRA.DIHEDRAL.0>
17.3688

>  <SCORE.INTRA.POLAR>
0

>  <SCORE.INTRA.POLAR.0>
0

>  <SCORE.INTRA.REPUL>
0

>  <SCORE.INTRA.REPUL.0>
0

>  <SCORE.INTRA.VDW>
-0.286303

>  <SCORE.INTRA.VDW.0>
-1.95779

>  <SCORE.INTRA.norm>
-0.142918

>  <SCORE.RESTR>
0

>  <SCORE.RESTR.CAVITY>
0

>  <SCORE.RESTR.norm>
0

>  <SCORE.SYSTEM>
0

>  <SCORE.SYSTEM.CONST>
0

>  <SCORE.SYSTEM.DIHEDRAL>
0

>  <SCORE.SYSTEM.norm>
0

>  <SCORE.heavy>
26

>  <SCORE.norm>
-0.933586

$$$$
design_3
 OpenBabel05252019093D

 24 26  0  0  0  0  0  0  0  0999 V2000
   40.6005  -44.3534    3.3334 C   0  0  0  0  0  0  0  0  0  0  0  0
   41.3674  -44.4925    4.5208 O   0  0  0  0  0  0  0  0  0  0  0  0
   42.1811  -45.5977    4.7093 C   0  0  0  0  0  0  0  0  0  0  0  0
   42.2523  -46.4439    3.7847 O   0  0  0  0  0  0  0  0  0  0  0  0
   42.9594  -45.7823    5.9851 C   0  0  0  0  0  0  0  0  0  0  0  0
   42.0516  -45.9098    7.0889 N   0  0  0  0  0  0  0  0  0  0  0  0
   42.1440  -45.2151    8.2055 N   0  0  0  0  0  0  0  0  0  0  0  0
   41.1569  -45.5513    9.0505 C   0  0  0  0  0  0  0  0  0  0  0  0
   40.8163  -45.0949   10.4054 C   0  0  0  0  0  0  0  0  0  0  0  0
   39.8824  -43.9968   10.3200 N   0  0  0  0  0  0  0  0  0  0  0  0
   40.2597  -42.8309    9.6053 C   0  0  0  0  0  0  0  0  0  0  0  0
   41.3794  -42.7197    9.0364 O   0  0  0  0  0  0  0  0  0  0  0  0
   39.3090  -41.7090    9.5246 C   0  0  0  0  0  0  0  0  0  0  0  0
   39.9255  -40.6434    8.6545 C   0  0  0  0  0  0  0  0  0  0  0  0
   40.4270  -39.4313    9.0517 C   0  0  0  0  0  0  0  0  0  0  0  0
   40.9317  -38.6327    8.1016 C   0  0  0  0  0  0  0  0  0  0  0  0
   40.9069  -39.0882    6.8154 C   0  0  0  0  0  0  0  0  0  0  0  0
   40.1781  -40.6222    6.9663 S   0  0  0  0  0  0  0  0  0  0  0  0
   40.4010  -46.5308    8.3958 C   0  0  0  0  0  0  0  0  0  0  0  0
   39.2760  -47.2494    8.7541 C   0  0  0  0  0  0  0  0  0  0  0  0
   38.7111  -48.1809    7.9050 C   0  0  0  0  0  0  0  0  0  0  0  0
   39.3173  -48.3622    6.6869 C   0  0  0  0  0  0  0  0  0  0  0  0
   40.4391  -47.6580    6.3074 C   0  0  0  0  0  0  0  0  0  0  0  0
   40.9929  -46.7264    7.1730 C   0  0  0  0  0  0  0  0  0  0  0  0
  1  2  1  0  0  0  0
  2  3  1  0  0  0  0
  3  4  2  0  0  0  0
  3  5  1  0  0  0  0
  5  6  1  0  0  0  0
  6  7  1  0  0  0  0
  7  8  2  0  0  0  0
  8  9  1  0  0  0  0
  8 19  1  0  0  0  0
  9 10  1  0  0  0  0
 10 11  1  0  0  0  0
 11 12  2  0  0  0  0
 11 13  1  0  0  0  0
 13 14  1  0  0  0  0
 14 15  2  0  0  0  0
 15 16  1  0  0  0  0
 16 17  2  0  0  0  0
 17 18  1  0  0  0  0
 18 14  1  0  0  0  0
 19 20  2  0  0  0  0
 20 21  1  0  0  0  0
 21 22  2  0  0  0  0
 22 23  1  0  0  0  0
 23 24  2  0  0  0  0
 24  6  1  0  0  0  0
 24 19  1  0  0  0  0
M  END
>  <CHROM.1>
2.29739609,62.72980292,-129.96380865,92.03286197,-58.56576770,-176.94433846
-108.15520842,40.73738860,-44.08719105,7.43660159,-1.37029200,1.28046859
0.07024987

>  <Name>
design_3

>  <RI>
0

>  <Rbt.Current_Directory>
/home/ziqiaoxu/icml18-jtnn/VAEdesign

>  <Rbt.Executable>
rbdock ($Id: //depot/dev/client3/rdock/2013.1/src/exe/rbdock.cxx#4 $)

>  <Rbt.Library>
libRbt.so (2013.1, Build901 2013/11/27)

>  <Rbt.Parameter_File>
/export/apps/rDock/src/rDock_2013.1_src//data/scripts/dock.prm

>  <Rbt.Receptor>
/home/ziqiaoxu/icml18-jtnn/VAEdesign/targets/RdRp-SARS-CoV-2/pocket_docking.prm

>  <SCORE>
-16.4364

>  <SCORE.INTER>
-15.8123

>  <SCORE.INTER.CONST>
1

>  <SCORE.INTER.POLAR>
-0.836062

>  <SCORE.INTER.REPUL>
0

>  <SCORE.INTER.ROT>
7

>  <SCORE.INTER.VDW>
-25.3697

>  <SCORE.INTER.norm>
-0.658847

>  <SCORE.INTRA>
-0.624033

>  <SCORE.INTRA.DIHEDRAL>
-1.04262

>  <SCORE.INTRA.DIHEDRAL.0>
8.96753

>  <SCORE.INTRA.POLAR>
0

>  <SCORE.INTRA.POLAR.0>
0

>  <SCORE.INTRA.REPUL>
0

>  <SCORE.INTRA.REPUL.0>
0

>  <SCORE.INTRA.VDW>
-0.102723

>  <SCORE.INTRA.VDW.0>
-0.622775

>  <SCORE.INTRA.norm>
-0.0260014

>  <SCORE.RESTR>
0

>  <SCORE.RESTR.CAVITY>
0

>  <SCORE.RESTR.norm>
0

>  <SCORE.SYSTEM>
0

>  <SCORE.SYSTEM.CONST>
0

>  <SCORE.SYSTEM.DIHEDRAL>
0

>  <SCORE.SYSTEM.norm>
0

>  <SCORE.heavy>
24

>  <SCORE.norm>
-0.684848

$$$$
design_14
 OpenBabel05252019093D

 23 24  0  0  0  0  0  0  0  0999 V2000
   40.1386  -46.2829   10.3845 N   0  0  0  0  0  0  0  0  0  0  0  0
   40.8486  -46.0131    9.2065 C   0  0  0  0  0  0  0  0  0  0  0  0
   41.7794  -45.1830    9.2266 O   0  0  0  0  0  0  0  0  0  0  0  0
   40.5192  -46.6802    7.9733 C   0  0  0  0  0  0  0  0  0  0  0  0
   39.5805  -47.6720    7.8680 C   0  0  0  0  0  0  0  0  0  0  0  0
   39.2684  -48.3067    6.6905 C   0  0  0  0  0  0  0  0  0  0  0  0
   39.9584  -47.8959    5.5737 C   0  0  0  0  0  0  0  0  0  0  0  0
   40.9287  -46.8844    5.6289 C   0  0  0  0  0  0  0  0  0  0  0  0
   41.5739  -46.5815    4.4358 N   0  0  0  0  0  0  0  0  0  0  0  0
   42.7006  -45.7323    4.3625 C   0  0  0  0  0  0  0  0  0  0  0  0
   43.2080  -45.1743    5.3546 O   0  0  0  0  0  0  0  0  0  0  0  0
   43.2661  -45.5361    2.9817 C   0  0  0  0  0  0  0  0  0  0  0  0
   42.4358  -44.5369    2.2431 C   0  0  0  0  0  0  0  0  0  0  0  0
   43.3012  -43.6402    1.4279 C   0  0  0  0  0  0  0  0  0  0  0  0
   42.3086  -42.2353    0.8272 S   0  0  0  0  0  0  0  0  0  0  0  0
   43.4073  -40.9886    0.1849 C   0  0  0  0  0  0  0  0  0  0  0  0
   43.2602  -39.6397    0.3622 C   0  0  0  0  0  0  0  0  0  0  0  0
   44.1458  -38.7105   -0.1864 C   0  0  0  0  0  0  0  0  0  0  0  0
   45.1968  -39.1620   -0.9255 C   0  0  0  0  0  0  0  0  0  0  0  0
   46.0469  -38.2449   -1.4506 F   0  0  0  0  0  0  0  0  0  0  0  0
   45.3891  -40.5272   -1.1333 C   0  0  0  0  0  0  0  0  0  0  0  0
   44.5017  -41.4049   -0.5811 C   0  0  0  0  0  0  0  0  0  0  0  0
   41.2037  -46.2872    6.8133 C   0  0  0  0  0  0  0  0  0  0  0  0
  1  2  1  0  0  0  0
  2  3  2  0  0  0  0
  2  4  1  0  0  0  0
  4  5  2  0  0  0  0
  5  6  1  0  0  0  0
  6  7  2  0  0  0  0
  7  8  1  0  0  0  0
  8  9  1  0  0  0  0
  8 23  2  0  0  0  0
  9 10  1  0  0  0  0
 10 11  2  0  0  0  0
 10 12  1  0  0  0  0
 12 13  1  0  0  0  0
 13 14  1  0  0  0  0
 14 15  1  0  0  0  0
 15 16  1  0  0  0  0
 16 17  2  0  0  0  0
 17 18  1  0  0  0  0
 18 19  2  0  0  0  0
 19 20  1  0  0  0  0
 19 21  1  0  0  0  0
 21 22  2  0  0  0  0
 22 16  1  0  0  0  0
 23  4  1  0  0  0  0
M  END
>  <CHROM.1>
-4.74629572,-170.56003036,79.41466866,140.61694059,-168.24433616,167.01541783
-139.72276871,42.43274689,-43.90721291,3.63065069,-2.57286551,-1.15231724
-1.84623138

>  <Name>
design_14

>  <RI>
0

>  <Rbt.Current_Directory>
/home/ziqiaoxu/icml18-jtnn/VAEdesign

>  <Rbt.Executable>
rbdock ($Id: //depot/dev/client3/rdock/2013.1/src/exe/rbdock.cxx#4 $)

>  <Rbt.Library>
libRbt.so (2013.1, Build901 2013/11/27)

>  <Rbt.Parameter_File>
/export/apps/rDock/src/rDock_2013.1_src//data/scripts/dock.prm

>  <Rbt.Receptor>
/home/ziqiaoxu/icml18-jtnn/VAEdesign/targets/RdRp-SARS-CoV-2/pocket_docking.prm

>  <SCORE>
-24.9425

>  <SCORE.INTER>
-24.3379

>  <SCORE.INTER.CONST>
1

>  <SCORE.INTER.POLAR>
-3.3649

>  <SCORE.INTER.REPUL>
0.0144465

>  <SCORE.INTER.ROT>
7

>  <SCORE.INTER.VDW>
-25.3694

>  <SCORE.INTER.norm>
-1.05817

>  <SCORE.INTRA>
-0.604594

>  <SCORE.INTRA.DIHEDRAL>
2.52262

>  <SCORE.INTRA.DIHEDRAL.0>
6.02467

>  <SCORE.INTRA.POLAR>
0

>  <SCORE.INTRA.POLAR.0>
0

>  <SCORE.INTRA.REPUL>
0

>  <SCORE.INTRA.REPUL.0>
0

>  <SCORE.INTRA.VDW>
-1.8659

>  <SCORE.INTRA.VDW.0>
1.36538

>  <SCORE.INTRA.norm>
-0.0262867

>  <SCORE.RESTR>
0

>  <SCORE.RESTR.CAVITY>
0

>  <SCORE.RESTR.norm>
0

>  <SCORE.SYSTEM>
0

>  <SCORE.SYSTEM.CONST>
0

>  <SCORE.SYSTEM.DIHEDRAL>
0

>  <SCORE.SYSTEM.norm>
0

>  <SCORE.heavy>
23

>  <SCORE.norm>
-1.08445

$$$$
design_4
 OpenBabel05252019093D

 25 27  0  0  0  0  0  0  0  0999 V2000
   40.0809  -46.2390   10.3955 N   0  0  0  0  0  0  0  0  0  0  0  0
   40.6241  -45.8162    9.1657 C   0  0  0  0  0  0  0  0  0  0  0  0
   41.3165  -44.7447    9.1273 O   0  0  0  0  0  0  0  0  0  0  0  0
   40.3841  -46.6065    7.9765 C   0  0  0  0  0  0  0  0  0  0  0  0
   39.5561  -47.6937    7.9911 C   0  0  0  0  0  0  0  0  0  0  0  0
   39.3265  -48.4526    6.8460 C   0  0  0  0  0  0  0  0  0  0  0  0
   39.9552  -48.0858    5.6823 C   0  0  0  0  0  0  0  0  0  0  0  0
   40.8133  -46.9791    5.6164 C   0  0  0  0  0  0  0  0  0  0  0  0
   41.4459  -46.6543    4.4074 N   0  0  0  0  0  0  0  0  0  0  0  0
   42.3866  -45.6442    4.1389 C   0  0  0  0  0  0  0  0  0  0  0  0
   42.7968  -44.8585    5.0007 O   0  0  0  0  0  0  0  0  0  0  0  0
   42.9130  -45.5142    2.7552 C   0  0  0  0  0  0  0  0  0  0  0  0
   41.9091  -44.7592    1.9250 C   0  0  0  0  0  0  0  0  0  0  0  0
   42.5510  -43.5939    1.2902 C   0  0  0  0  0  0  0  0  0  0  0  0
   43.7897  -43.7044    0.7294 N   0  0  0  0  0  0  0  0  0  0  0  0
   44.4085  -42.6723    0.1431 C   0  0  0  0  0  0  0  0  0  0  0  0
   45.6722  -42.7992   -0.4251 C   0  0  0  0  0  0  0  0  0  0  0  0
   46.3019  -41.7136   -1.0316 C   0  0  0  0  0  0  0  0  0  0  0  0
   45.6577  -40.4932   -1.0673 C   0  0  0  0  0  0  0  0  0  0  0  0
   44.4057  -40.3888   -0.4984 C   0  0  0  0  0  0  0  0  0  0  0  0
   43.7698  -41.4521    0.1049 C   0  0  0  0  0  0  0  0  0  0  0  0
   42.5156  -41.3598    0.6783 C   0  0  0  0  0  0  0  0  0  0  0  0
   41.9148  -40.2549    0.6543 O   0  0  0  0  0  0  0  0  0  0  0  0
   41.9122  -42.4110    1.2624 N   0  0  0  0  0  0  0  0  0  0  0  0
   41.0079  -46.2643    6.7681 C   0  0  0  0  0  0  0  0  0  0  0  0
  1  2  1  0  0  0  0
  2  3  2  0  0  0  0
  2  4  1  0  0  0  0
  4  5  2  0  0  0  0
  5  6  1  0  0  0  0
  6  7  2  0  0  0  0
  7  8  1  0  0  0  0
  8  9  1  0  0  0  0
  8 25  2  0  0  0  0
  9 10  1  0  0  0  0
 10 11  2  0  0  0  0
 10 12  1  0  0  0  0
 12 13  1  0  0  0  0
 13 14  1  0  0  0  0
 14 15  2  0  0  0  0
 15 16  1  0  0  0  0
 16 17  2  0  0  0  0
 17 18  1  0  0  0  0
 18 19  2  0  0  0  0
 19 20  1  0  0  0  0
 20 21  2  0  0  0  0
 21 22  1  0  0  0  0
 21 16  1  0  0  0  0
 22 23  2  0  0  0  0
 22 24  1  0  0  0  0
 24 14  1  0  0  0  0
 25  4  1  0  0  0  0
M  END
>  <CHROM.1>
5.35759722,-176.30579132,80.74403184,125.30449025,42.73870973,42.26479179
-44.36399807,3.65741248,-3.06642070,-1.18395050,-2.49855716

>  <Name>
design_4

>  <RI>
0

>  <Rbt.Current_Directory>
/home/ziqiaoxu/icml18-jtnn/VAEdesign

>  <Rbt.Executable>
rbdock ($Id: //depot/dev/client3/rdock/2013.1/src/exe/rbdock.cxx#4 $)

>  <Rbt.Library>
libRbt.so (2013.1, Build901 2013/11/27)

>  <Rbt.Parameter_File>
/export/apps/rDock/src/rDock_2013.1_src//data/scripts/dock.prm

>  <Rbt.Receptor>
/home/ziqiaoxu/icml18-jtnn/VAEdesign/targets/RdRp-SARS-CoV-2/pocket_docking.prm

>  <SCORE>
-28.5597

>  <SCORE.INTER>
-29.2811

>  <SCORE.INTER.CONST>
1

>  <SCORE.INTER.POLAR>
-4.28889

>  <SCORE.INTER.REPUL>
0.0539337

>  <SCORE.INTER.ROT>
5

>  <SCORE.INTER.VDW>
-25.3685

>  <SCORE.INTER.norm>
-1.17124

>  <SCORE.INTRA>
0.721386

>  <SCORE.INTRA.DIHEDRAL>
5.10919

>  <SCORE.INTRA.DIHEDRAL.0>
2.7118

>  <SCORE.INTRA.POLAR>
0

>  <SCORE.INTRA.POLAR.0>
0

>  <SCORE.INTRA.REPUL>
0

>  <SCORE.INTRA.REPUL.0>
0

>  <SCORE.INTRA.VDW>
-1.83321

>  <SCORE.INTRA.VDW.0>
1.01539

>  <SCORE.INTRA.norm>
0.0288554

>  <SCORE.RESTR>
0

>  <SCORE.RESTR.CAVITY>
0

>  <SCORE.RESTR.norm>
0

>  <SCORE.SYSTEM>
0

>  <SCORE.SYSTEM.CONST>
0

>  <SCORE.SYSTEM.DIHEDRAL>
0

>  <SCORE.SYSTEM.norm>
0

>  <SCORE.heavy>
25

>  <SCORE.norm>
-1.14239

$$$$
design_9
 OpenBabel05252019093D

 24 27  0  0  0  0  0  0  0  0999 V2000
   39.7325  -46.2405    9.7832 C   0  0  0  0  0  0  0  0  0  0  0  0
   39.7374  -46.9074    8.4662 C   0  0  0  0  0  0  0  0  0  0  0  0
   38.6672  -47.7115    8.0967 C   0  0  0  0  0  0  0  0  0  0  0  0
   38.6341  -48.3489    6.8808 C   0  0  0  0  0  0  0  0  0  0  0  0
   39.6951  -48.1730    6.0256 C   0  0  0  0  0  0  0  0  0  0  0  0
   40.7636  -47.3745    6.3863 C   0  0  0  0  0  0  0  0  0  0  0  0
   40.7926  -46.7384    7.6045 C   0  0  0  0  0  0  0  0  0  0  0  0
   41.9517  -45.9062    7.9285 C   0  0  0  0  0  0  0  0  0  0  0  0
   42.1206  -45.1288    9.0284 N   0  0  0  0  0  0  0  0  0  0  0  0
   43.2771  -44.5349    8.9724 O   0  0  0  0  0  0  0  0  0  0  0  0
   43.9104  -44.8747    7.8748 C   0  0  0  0  0  0  0  0  0  0  0  0
   45.2694  -44.4113    7.4328 C   0  0  0  0  0  0  0  0  0  0  0  0
   45.1944  -43.8037    6.0618 C   0  0  0  0  0  0  0  0  0  0  0  0
   45.5161  -44.7963    5.0455 N   0  0  0  0  0  0  0  0  0  0  0  0
   44.8033  -44.9876    3.9022 C   0  0  0  0  0  0  0  0  0  0  0  0
   45.3799  -46.0005    3.1689 C   0  0  0  0  0  0  0  0  0  0  0  0
   44.8871  -46.4955    1.8631 C   0  0  0  0  0  0  0  0  0  0  0  0
   43.6735  -45.7025    1.4067 C   0  0  0  0  0  0  0  0  0  0  0  0
   43.7786  -45.5305   -0.0685 C   0  0  0  0  0  0  0  0  0  0  0  0
   44.9728  -46.3344   -0.4750 C   0  0  0  0  0  0  0  0  0  0  0  0
   45.8720  -46.2309    0.7506 C   0  0  0  0  0  0  0  0  0  0  0  0
   46.4405  -46.4018    3.8960 N   0  0  0  0  0  0  0  0  0  0  0  0
   46.4926  -45.6684    5.0012 N   0  0  0  0  0  0  0  0  0  0  0  0
   43.0892  -45.7233    7.2297 N   0  0  0  0  0  0  0  0  0  0  0  0
  1  2  1  0  0  0  0
  2  3  2  0  0  0  0
  3  4  1  0  0  0  0
  4  5  2  0  0  0  0
  5  6  1  0  0  0  0
  6  7  2  0  0  0  0
  7  8  1  0  0  0  0
  7  2  1  0  0  0  0
  8  9  2  0  0  0  0
  9 10  1  0  0  0  0
 10 11  1  0  0  0  0
 11 12  1  0  0  0  0
 11 24  2  0  0  0  0
 12 13  1  0  0  0  0
 13 14  1  0  0  0  0
 14 15  1  0  0  0  0
 15 16  2  0  0  0  0
 16 17  1  0  0  0  0
 16 22  1  0  0  0  0
 17 18  1  0  0  0  0
 18 19  1  0  0  0  0
 19 20  1  0  0  0  0
 20 21  1  0  0  0  0
 21 17  1  0  0  0  0
 22 23  2  0  0  0  0
 23 14  1  0  0  0  0
 24  8  1  0  0  0  0
M  END
>  <CHROM.1>
-5.06844912,-124.63463918,-94.75439502,134.18574184,1.87150053,43.15898869
-45.96828769,5.49824308,2.28156951,0.45525347,1.32498776

>  <Name>
design_9

>  <RI>
0

>  <Rbt.Current_Directory>
/home/ziqiaoxu/icml18-jtnn/VAEdesign

>  <Rbt.Executable>
rbdock ($Id: //depot/dev/client3/rdock/2013.1/src/exe/rbdock.cxx#4 $)

>  <Rbt.Library>
libRbt.so (2013.1, Build901 2013/11/27)

>  <Rbt.Parameter_File>
/export/apps/rDock/src/rDock_2013.1_src//data/scripts/dock.prm

>  <Rbt.Receptor>
/home/ziqiaoxu/icml18-jtnn/VAEdesign/targets/RdRp-SARS-CoV-2/pocket_docking.prm

>  <SCORE>
-10.8962

>  <SCORE.INTER>
-14.968

>  <SCORE.INTER.CONST>
1

>  <SCORE.INTER.POLAR>
0

>  <SCORE.INTER.REPUL>
0

>  <SCORE.INTER.ROT>
5

>  <SCORE.INTER.VDW>
-25.368

>  <SCORE.INTER.norm>
-0.623668

>  <SCORE.INTRA>
4.0718

>  <SCORE.INTRA.DIHEDRAL>
3.48845

>  <SCORE.INTRA.DIHEDRAL.0>
3.86452

>  <SCORE.INTRA.POLAR>
0

>  <SCORE.INTRA.POLAR.0>
0

>  <SCORE.INTRA.REPUL>
0

>  <SCORE.INTRA.REPUL.0>
0

>  <SCORE.INTRA.VDW>
2.32758

>  <SCORE.INTRA.VDW.0>
-1.59804

>  <SCORE.INTRA.norm>
0.169659

>  <SCORE.RESTR>
0

>  <SCORE.RESTR.CAVITY>
0

>  <SCORE.RESTR.norm>
0

>  <SCORE.SYSTEM>
0

>  <SCORE.SYSTEM.CONST>
0

>  <SCORE.SYSTEM.DIHEDRAL>
0

>  <SCORE.SYSTEM.norm>
0

>  <SCORE.heavy>
24

>  <SCORE.norm>
-0.454009

$$$$
design_12
 OpenBabel05252019093D

 24 26  0  0  0  0  0  0  0  0999 V2000
   40.3853  -41.4590    8.4811 C   0  0  0  0  0  0  0  0  0  0  0  0
   40.2983  -40.3085    7.5287 C   0  0  0  0  0  0  0  0  0  0  0  0
   40.5342  -39.0537    8.0271 C   0  0  0  0  0  0  0  0  0  0  0  0
   40.4765  -37.9198    7.2214 C   0  0  0  0  0  0  0  0  0  0  0  0
   40.1722  -38.0988    5.8943 C   0  0  0  0  0  0  0  0  0  0  0  0
   40.0902  -36.6926    4.8129 S   0  0  0  0  0  0  0  0  0  0  0  0
   39.5232  -37.2586    3.1934 C   0  0  0  0  0  0  0  0  0  0  0  0
   40.7405  -37.6113    2.3779 C   0  0  0  0  0  0  0  0  0  0  0  0
   41.4881  -36.6745    2.0878 O   0  0  0  0  0  0  0  0  0  0  0  0
   40.9578  -38.9320    2.0059 N   0  0  0  0  0  0  0  0  0  0  0  0
   41.9962  -39.5157    1.2650 C   0  0  0  0  0  0  0  0  0  0  0  0
   42.9743  -38.7599    0.6822 C   0  0  0  0  0  0  0  0  0  0  0  0
   43.9793  -39.4256   -0.0181 C   0  0  0  0  0  0  0  0  0  0  0  0
   44.0031  -40.7891   -0.1295 C   0  0  0  0  0  0  0  0  0  0  0  0
   43.0063  -41.5848    0.4621 C   0  0  0  0  0  0  0  0  0  0  0  0
   43.1039  -42.9903    0.3349 N   0  0  0  0  0  0  0  0  0  0  0  0
   42.6833  -43.9792    1.2241 C   0  0  0  0  0  0  0  0  0  0  0  0
   42.1247  -43.6763    2.2998 O   0  0  0  0  0  0  0  0  0  0  0  0
   42.8770  -45.4412    0.9397 C   0  0  0  0  0  0  0  0  0  0  0  0
   43.7112  -45.8938   -0.1975 C   0  0  0  0  0  0  0  0  0  0  0  0
   44.3200  -45.9543    1.1390 C   0  0  0  0  0  0  0  0  0  0  0  0
   42.0321  -40.9186    1.1425 C   0  0  0  0  0  0  0  0  0  0  0  0
   39.9362  -39.3552    5.3979 C   0  0  0  0  0  0  0  0  0  0  0  0
   39.9970  -40.4844    6.2157 C   0  0  0  0  0  0  0  0  0  0  0  0
  1  2  1  0  0  0  0
  2  3  2  0  0  0  0
  3  4  1  0  0  0  0
  4  5  2  0  0  0  0
  5  6  1  0  0  0  0
  5 23  1  0  0  0  0
  6  7  1  0  0  0  0
  7  8  1  0  0  0  0
  8  9  2  0  0  0  0
  8 10  1  0  0  0  0
 10 11  1  0  0  0  0
 11 12  2  0  0  0  0
 12 13  1  0  0  0  0
 13 14  2  0  0  0  0
 14 15  1  0  0  0  0
 15 16  1  0  0  0  0
 15 22  2  0  0  0  0
 16 17  1  0  0  0  0
 17 18  2  0  0  0  0
 17 19  1  0  0  0  0
 19 20  1  0  0  0  0
 20 21  1  0  0  0  0
 21 19  1  0  0  0  0
 22 11  1  0  0  0  0
 23 24  2  0  0  0  0
 24  2  1  0  0  0  0
M  END
>  <CHROM.1>
-174.84953830,-90.73515481,-65.76438050,-5.04654666,148.61298689,9.65887295
41.64150076,-40.35348407,3.09486423,2.88877733,1.16787464,-0.53781720

>  <Name>
design_12

>  <RI>
0

>  <Rbt.Current_Directory>
/home/ziqiaoxu/icml18-jtnn/VAEdesign

>  <Rbt.Executable>
rbdock ($Id: //depot/dev/client3/rdock/2013.1/src/exe/rbdock.cxx#4 $)

>  <Rbt.Library>
libRbt.so (2013.1, Build901 2013/11/27)

>  <Rbt.Parameter_File>
/export/apps/rDock/src/rDock_2013.1_src//data/scripts/dock.prm

>  <Rbt.Receptor>
/home/ziqiaoxu/icml18-jtnn/VAEdesign/targets/RdRp-SARS-CoV-2/pocket_docking.prm

>  <SCORE>
-18.938

>  <SCORE.INTER>
-21.1167

>  <SCORE.INTER.CONST>
1

>  <SCORE.INTER.POLAR>
-2.10481

>  <SCORE.INTER.REPUL>
0

>  <SCORE.INTER.ROT>
6

>  <SCORE.INTER.VDW>
-25.3603

>  <SCORE.INTER.norm>
-0.879862

>  <SCORE.INTRA>
2.17809

>  <SCORE.INTRA.DIHEDRAL>
3.12719

>  <SCORE.INTRA.DIHEDRAL.0>
7.24105

>  <SCORE.INTRA.POLAR>
0

>  <SCORE.INTRA.POLAR.0>
0

>  <SCORE.INTRA.REPUL>
0

>  <SCORE.INTRA.REPUL.0>
0

>  <SCORE.INTRA.VDW>
0.614493

>  <SCORE.INTRA.VDW.0>
-2.31565

>  <SCORE.INTRA.norm>
0.0907537

>  <SCORE.RESTR>
0.000575622

>  <SCORE.RESTR.CAVITY>
0.000575622

>  <SCORE.RESTR.norm>
2.39843e-05

>  <SCORE.SYSTEM>
0

>  <SCORE.SYSTEM.CONST>
0

>  <SCORE.SYSTEM.DIHEDRAL>
0

>  <SCORE.SYSTEM.norm>
0

>  <SCORE.heavy>
24

>  <SCORE.norm>
-0.789085

$$$$
design_12
 OpenBabel05252019093D

 25 26  0  0  0  0  0  0  0  0999 V2000
   41.3864  -44.1754   10.6671 C   0  0  0  0  0  0  0  0  0  0  0  0
   41.1227  -44.8269    9.4153 N   0  0  0  0  0  0  0  0  0  0  0  0
   40.4074  -46.0514    9.4174 C   0  0  0  0  0  0  0  0  0  0  0  0
   40.0072  -46.5145   10.5622 O   0  0  0  0  0  0  0  0  0  0  0  0
   40.1339  -46.7553    8.1940 C   0  0  0  0  0  0  0  0  0  0  0  0
   39.1797  -47.8065    8.2200 C   0  0  0  0  0  0  0  0  0  0  0  0
   38.9463  -48.4914    7.0672 C   0  0  0  0  0  0  0  0  0  0  0  0
   39.6075  -48.1905    5.8897 C   0  0  0  0  0  0  0  0  0  0  0  0
   40.5499  -47.1552    5.8618 C   0  0  0  0  0  0  0  0  0  0  0  0
   41.3109  -46.8582    4.7001 N   0  0  0  0  0  0  0  0  0  0  0  0
   42.5260  -46.1228    4.7172 C   0  0  0  0  0  0  0  0  0  0  0  0
   42.9671  -45.6810    5.8197 O   0  0  0  0  0  0  0  0  0  0  0  0
   43.2300  -45.8820    3.5606 N   0  0  0  0  0  0  0  0  0  0  0  0
   43.9314  -45.6422    2.4085 C   0  0  0  0  0  0  0  0  0  0  0  0
   42.8750  -45.2322    1.3255 C   0  0  0  0  0  0  0  0  0  0  0  0
   42.4407  -43.8362    1.4754 C   0  0  0  0  0  0  0  0  0  0  0  0
   41.7373  -43.5087    2.5066 O   0  0  0  0  0  0  0  0  0  0  0  0
   42.7733  -42.8486    0.5638 N   0  0  0  0  0  0  0  0  0  0  0  0
   42.3587  -41.4580    0.7328 C   0  0  0  0  0  0  0  0  0  0  0  0
   43.3855  -40.5482    0.1700 C   0  0  0  0  0  0  0  0  0  0  0  0
   44.5794  -40.8325   -0.3958 C   0  0  0  0  0  0  0  0  0  0  0  0
   45.1810  -39.6478   -0.7757 C   0  0  0  0  0  0  0  0  0  0  0  0
   44.2552  -38.6510   -0.3945 C   0  0  0  0  0  0  0  0  0  0  0  0
   43.2248  -39.2320    0.1578 O   0  0  0  0  0  0  0  0  0  0  0  0
   40.7952  -46.4446    7.0473 C   0  0  0  0  0  0  0  0  0  0  0  0
  1  2  1  0  0  0  0
  2  3  1  0  0  0  0
  3  4  2  0  0  0  0
  3  5  1  0  0  0  0
  5  6  2  0  0  0  0
  6  7  1  0  0  0  0
  7  8  2  0  0  0  0
  8  9  1  0  0  0  0
  9 10  1  0  0  0  0
  9 25  2  0  0  0  0
 10 11  1  0  0  0  0
 11 12  2  0  0  0  0
 11 13  1  0  0  0  0
 13 14  1  0  0  0  0
 14 15  1  0  0  0  0
 15 16  1  0  0  0  0
 16 17  2  0  0  0  0
 16 18  1  0  0  0  0
 18 19  1  0  0  0  0
 19 20  1  0  0  0  0
 20 21  2  0  0  0  0
 21 22  1  0  0  0  0
 22 23  2  0  0  0  0
 23 24  1  0  0  0  0
 24 20  1  0  0  0  0
 25  5  1  0  0  0  0
M  END
>  <CHROM.1>
-166.58509453,-160.28436442,-169.44680041,78.50606060,-68.21953519,147.61306224
-2.16856894,41.97877057,-44.46729203,4.37036752,-2.88429510,-1.23737797,-2.26098601

>  <Name>
design_12

>  <RI>
0

>  <Rbt.Current_Directory>
/home/ziqiaoxu/icml18-jtnn/VAEdesign

>  <Rbt.Executable>
rbdock ($Id: //depot/dev/client3/rdock/2013.1/src/exe/rbdock.cxx#4 $)

>  <Rbt.Library>
libRbt.so (2013.1, Build901 2013/11/27)

>  <Rbt.Parameter_File>
/export/apps/rDock/src/rDock_2013.1_src//data/scripts/dock.prm

>  <Rbt.Receptor>
/home/ziqiaoxu/icml18-jtnn/VAEdesign/targets/RdRp-SARS-CoV-2/pocket_docking.prm

>  <SCORE>
-24.6051

>  <SCORE.INTER>
-19.8501

>  <SCORE.INTER.CONST>
1

>  <SCORE.INTER.POLAR>
-2.02643

>  <SCORE.INTER.REPUL>
0

>  <SCORE.INTER.ROT>
7

>  <SCORE.INTER.VDW>
-25.3602

>  <SCORE.INTER.norm>
-0.794002

>  <SCORE.INTRA>
-4.75508

>  <SCORE.INTRA.DIHEDRAL>
-10.9939

>  <SCORE.INTRA.DIHEDRAL.0>
18.915

>  <SCORE.INTRA.POLAR>
0

>  <SCORE.INTRA.POLAR.0>
0

>  <SCORE.INTRA.REPUL>
0

>  <SCORE.INTRA.REPUL.0>
0

>  <SCORE.INTRA.VDW>
0.741848

>  <SCORE.INTRA.VDW.0>
-1.19988

>  <SCORE.INTRA.norm>
-0.190203

>  <SCORE.RESTR>
0

>  <SCORE.RESTR.CAVITY>
0

>  <SCORE.RESTR.norm>
0

>  <SCORE.SYSTEM>
0

>  <SCORE.SYSTEM.CONST>
0

>  <SCORE.SYSTEM.DIHEDRAL>
0

>  <SCORE.SYSTEM.norm>
0

>  <SCORE.heavy>
25

>  <SCORE.norm>
-0.984206

$$$$
design_1
 OpenBabel05252019093D

 24 26  0  0  0  0  0  0  0  0999 V2000
   38.7546  -49.1904    7.0859 C   0  0  0  0  0  0  0  0  0  0  0  0
   39.1163  -47.9596    6.3268 C   0  0  0  0  0  0  0  0  0  0  0  0
   38.1730  -47.1934    5.6775 C   0  0  0  0  0  0  0  0  0  0  0  0
   38.5189  -46.0582    4.9795 C   0  0  0  0  0  0  0  0  0  0  0  0
   39.8473  -45.6192    4.8903 C   0  0  0  0  0  0  0  0  0  0  0  0
   40.2286  -44.1529    3.9528 S   0  0  0  0  0  0  0  0  0  0  0  0
   40.5582  -44.4598    2.2192 C   0  0  0  0  0  0  0  0  0  0  0  0
   41.7034  -43.6788    1.6636 C   0  0  0  0  0  0  0  0  0  0  0  0
   42.7949  -44.2401    1.6442 O   0  0  0  0  0  0  0  0  0  0  0  0
   41.4612  -42.3794    1.2087 N   0  0  0  0  0  0  0  0  0  0  0  0
   42.4357  -41.5208    0.6691 C   0  0  0  0  0  0  0  0  0  0  0  0
   43.4865  -41.9379   -0.1099 C   0  0  0  0  0  0  0  0  0  0  0  0
   44.4985  -41.0867   -0.5814 C   0  0  0  0  0  0  0  0  0  0  0  0
   44.4392  -39.7653   -0.2484 C   0  0  0  0  0  0  0  0  0  0  0  0
   43.3849  -39.3349    0.5349 C   0  0  0  0  0  0  0  0  0  0  0  0
   42.3791  -40.1363    1.0123 C   0  0  0  0  0  0  0  0  0  0  0  0
   41.2896  -39.6691    1.7379 N   0  0  0  0  0  0  0  0  0  0  0  0
   40.9799  -38.3364    2.0066 C   0  0  0  0  0  0  0  0  0  0  0  0
   41.6530  -37.3632    1.6313 O   0  0  0  0  0  0  0  0  0  0  0  0
   39.7162  -38.0750    2.8239 C   0  0  0  0  0  0  0  0  0  0  0  0
   39.7507  -38.2749    4.2767 C   0  0  0  0  0  0  0  0  0  0  0  0
   39.8719  -36.8507    3.7439 C   0  0  0  0  0  0  0  0  0  0  0  0
   40.7826  -46.3894    5.5403 C   0  0  0  0  0  0  0  0  0  0  0  0
   40.4268  -47.5434    6.2497 C   0  0  0  0  0  0  0  0  0  0  0  0
  1  2  1  0  0  0  0
  2  3  2  0  0  0  0
  3  4  1  0  0  0  0
  4  5  2  0  0  0  0
  5  6  1  0  0  0  0
  5 23  1  0  0  0  0
  6  7  1  0  0  0  0
  7  8  1  0  0  0  0
  8  9  2  0  0  0  0
  8 10  1  0  0  0  0
 10 11  1  0  0  0  0
 11 12  2  0  0  0  0
 12 13  1  0  0  0  0
 13 14  2  0  0  0  0
 14 15  1  0  0  0  0
 15 16  2  0  0  0  0
 16 17  1  0  0  0  0
 16 11  1  0  0  0  0
 17 18  1  0  0  0  0
 18 19  2  0  0  0  0
 18 20  1  0  0  0  0
 20 21  1  0  0  0  0
 21 22  1  0  0  0  0
 22 20  1  0  0  0  0
 23 24  2  0  0  0  0
 24  2  1  0  0  0  0
M  END
>  <CHROM.1>
-88.62474427,-138.41851722,95.11266820,35.44702089,-170.92591375,77.85464564
41.04077138,-42.60235467,2.92781516,1.98864646,-0.81936595,2.96341850

>  <Name>
design_1

>  <RI>
0

>  <Rbt.Current_Directory>
/home/ziqiaoxu/icml18-jtnn/VAEdesign

>  <Rbt.Executable>
rbdock ($Id: //depot/dev/client3/rdock/2013.1/src/exe/rbdock.cxx#4 $)

>  <Rbt.Library>
libRbt.so (2013.1, Build901 2013/11/27)

>  <Rbt.Parameter_File>
/export/apps/rDock/src/rDock_2013.1_src//data/scripts/dock.prm

>  <Rbt.Receptor>
/home/ziqiaoxu/icml18-jtnn/VAEdesign/targets/RdRp-SARS-CoV-2/pocket_docking.prm

>  <SCORE>
-20.6914

>  <SCORE.INTER>
-21.7481

>  <SCORE.INTER.CONST>
1

>  <SCORE.INTER.POLAR>
-2.29129

>  <SCORE.INTER.REPUL>
0

>  <SCORE.INTER.ROT>
6

>  <SCORE.INTER.VDW>
-25.3577

>  <SCORE.INTER.norm>
-0.90617

>  <SCORE.INTRA>
1.05664

>  <SCORE.INTRA.DIHEDRAL>
4.17613

>  <SCORE.INTRA.DIHEDRAL.0>
7.55785

>  <SCORE.INTRA.POLAR>
0

>  <SCORE.INTRA.POLAR.0>
0

>  <SCORE.INTRA.REPUL>
0

>  <SCORE.INTRA.REPUL.0>
0

>  <SCORE.INTRA.VDW>
-1.03143

>  <SCORE.INTRA.VDW.0>
0.108076

>  <SCORE.INTRA.norm>
0.0440266

>  <SCORE.RESTR>
0

>  <SCORE.RESTR.CAVITY>
0

>  <SCORE.RESTR.norm>
0

>  <SCORE.SYSTEM>
0

>  <SCORE.SYSTEM.CONST>
0

>  <SCORE.SYSTEM.DIHEDRAL>
0

>  <SCORE.SYSTEM.norm>
0

>  <SCORE.heavy>
24

>  <SCORE.norm>
-0.862143

$$$$
design_15
 OpenBabel05252019093D

 24 26  0  0  0  0  0  0  0  0999 V2000
   40.1243  -46.1128   10.7182 N   0  0  0  0  0  0  0  0  0  0  0  0
   39.3893  -45.6510    9.2262 S   0  0  0  0  0  0  0  0  0  0  0  0
   39.0651  -44.1626    9.3714 O   0  0  0  0  0  0  0  0  0  0  0  0
   38.0817  -46.3413    9.0546 O   0  0  0  0  0  0  0  0  0  0  0  0
   40.4732  -45.8656    7.8833 C   0  0  0  0  0  0  0  0  0  0  0  0
   40.0728  -46.5964    6.7744 C   0  0  0  0  0  0  0  0  0  0  0  0
   40.9131  -46.7771    5.6771 C   0  0  0  0  0  0  0  0  0  0  0  0
   42.1574  -46.2109    5.7149 C   0  0  0  0  0  0  0  0  0  0  0  0
   42.6235  -45.4571    6.8088 C   0  0  0  0  0  0  0  0  0  0  0  0
   43.9762  -44.9456    6.6654 C   0  0  0  0  0  0  0  0  0  0  0  0
   44.8761  -45.6452    5.8301 N   0  0  0  0  0  0  0  0  0  0  0  0
   44.7844  -45.4130    4.4333 C   0  0  0  0  0  0  0  0  0  0  0  0
   43.9082  -44.6050    3.9953 O   0  0  0  0  0  0  0  0  0  0  0  0
   45.6169  -46.0395    3.4151 C   0  0  0  0  0  0  0  0  0  0  0  0
   46.8589  -46.5698    3.7522 C   0  0  0  0  0  0  0  0  0  0  0  0
   47.7311  -47.0958    2.8233 C   0  0  0  0  0  0  0  0  0  0  0  0
   47.3278  -47.0850    1.4976 C   0  0  0  0  0  0  0  0  0  0  0  0
   46.0934  -46.5634    1.1383 C   0  0  0  0  0  0  0  0  0  0  0  0
   45.6580  -46.5665   -0.1938 C   0  0  0  0  0  0  0  0  0  0  0  0
   44.4233  -46.0669   -0.5285 C   0  0  0  0  0  0  0  0  0  0  0  0
   43.5917  -45.5566    0.4396 C   0  0  0  0  0  0  0  0  0  0  0  0
   44.0130  -45.5562    1.7120 N   0  0  0  0  0  0  0  0  0  0  0  0
   45.2332  -46.0417    2.0828 C   0  0  0  0  0  0  0  0  0  0  0  0
   41.7490  -45.3193    7.8471 C   0  0  0  0  0  0  0  0  0  0  0  0
  1  2  1  0  0  0  0
  2  3  2  0  0  0  0
  2  4  2  0  0  0  0
  2  5  1  0  0  0  0
  5  6  2  0  0  0  0
  6  7  1  0  0  0  0
  7  8  2  0  0  0  0
  8  9  1  0  0  0  0
  9 10  1  0  0  0  0
  9 24  2  0  0  0  0
 10 11  1  0  0  0  0
 11 12  1  0  0  0  0
 12 13  2  0  0  0  0
 12 14  1  0  0  0  0
 14 15  2  0  0  0  0
 15 16  1  0  0  0  0
 16 17  2  0  0  0  0
 17 18  1  0  0  0  0
 18 19  2  0  0  0  0
 19 20  1  0  0  0  0
 20 21  2  0  0  0  0
 21 22  1  0  0  0  0
 22 23  2  0  0  0  0
 23 14  1  0  0  0  0
 23 18  1  0  0  0  0
 24  5  1  0  0  0  0
M  END
>  <CHROM.1>
56.31555402,127.34637707,-26.53257027,80.81595998,-22.07321130,42.95863292
-45.88894160,5.21968575,-2.25668860,0.05285536,-1.60669897

>  <Name>
design_15

>  <RI>
0

>  <Rbt.Current_Directory>
/home/ziqiaoxu/icml18-jtnn/VAEdesign

>  <Rbt.Executable>
rbdock ($Id: //depot/dev/client3/rdock/2013.1/src/exe/rbdock.cxx#4 $)

>  <Rbt.Library>
libRbt.so (2013.1, Build901 2013/11/27)

>  <Rbt.Parameter_File>
/export/apps/rDock/src/rDock_2013.1_src//data/scripts/dock.prm

>  <Rbt.Receptor>
/home/ziqiaoxu/icml18-jtnn/VAEdesign/targets/RdRp-SARS-CoV-2/pocket_docking.prm

>  <SCORE>
-26.909

>  <SCORE.INTER>
-25.8114

>  <SCORE.INTER.CONST>
1

>  <SCORE.INTER.POLAR>
-3.19259

>  <SCORE.INTER.REPUL>
0

>  <SCORE.INTER.ROT>
5

>  <SCORE.INTER.VDW>
-25.3566

>  <SCORE.INTER.norm>
-1.07548

>  <SCORE.INTRA>
-1.0975

>  <SCORE.INTRA.DIHEDRAL>
-4.00629

>  <SCORE.INTRA.DIHEDRAL.0>
8.57885

>  <SCORE.INTRA.POLAR>
0

>  <SCORE.INTRA.POLAR.0>
0

>  <SCORE.INTRA.REPUL>
0

>  <SCORE.INTRA.REPUL.0>
0

>  <SCORE.INTRA.VDW>
0.905639

>  <SCORE.INTRA.VDW.0>
-1.89417

>  <SCORE.INTRA.norm>
-0.0457293

>  <SCORE.RESTR>
0

>  <SCORE.RESTR.CAVITY>
0

>  <SCORE.RESTR.norm>
0

>  <SCORE.SYSTEM>
0

>  <SCORE.SYSTEM.CONST>
0

>  <SCORE.SYSTEM.DIHEDRAL>
0

>  <SCORE.SYSTEM.norm>
0

>  <SCORE.heavy>
24

>  <SCORE.norm>
-1.12121

$$$$
design_3
 OpenBabel05252019093D

 19 20  0  0  0  0  0  0  0  0999 V2000
   41.9252  -44.3045   10.2675 C   0  0  0  0  0  0  0  0  0  0  0  0
   41.1845  -45.3636    9.5261 C   0  0  0  0  0  0  0  0  0  0  0  0
   40.0021  -45.8704   10.0075 C   0  0  0  0  0  0  0  0  0  0  0  0
   39.3538  -46.8389    9.3002 C   0  0  0  0  0  0  0  0  0  0  0  0
   39.8412  -47.3448    8.0964 C   0  0  0  0  0  0  0  0  0  0  0  0
   39.0072  -48.5804    7.2018 S   0  0  0  0  0  0  0  0  0  0  0  0
   38.2390  -49.4792    8.1683 O   0  0  0  0  0  0  0  0  0  0  0  0
   40.0312  -49.4655    6.4935 O   0  0  0  0  0  0  0  0  0  0  0  0
   37.9635  -47.9492    6.0172 N   0  0  0  0  0  0  0  0  0  0  0  0
   37.4592  -46.6148    5.9530 C   0  0  0  0  0  0  0  0  0  0  0  0
   36.3382  -46.2468    5.2578 C   0  0  0  0  0  0  0  0  0  0  0  0
   35.8941  -44.9461    5.2633 C   0  0  0  0  0  0  0  0  0  0  0  0
   36.5368  -43.9485    5.9569 C   0  0  0  0  0  0  0  0  0  0  0  0
   35.9711  -42.2876    5.9648 Cl  0  0  0  0  0  0  0  0  0  0  0  0
   37.6680  -44.3372    6.6552 C   0  0  0  0  0  0  0  0  0  0  0  0
   38.1269  -45.6090    6.6666 C   0  0  0  0  0  0  0  0  0  0  0  0
   41.0334  -46.7984    7.6608 C   0  0  0  0  0  0  0  0  0  0  0  0
   41.7215  -45.8209    8.3406 C   0  0  0  0  0  0  0  0  0  0  0  0
   43.2259  -45.1722    7.7337 Cl  0  0  0  0  0  0  0  0  0  0  0  0
  1  2  1  0  0  0  0
  2  3  2  0  0  0  0
  3  4  1  0  0  0  0
  4  5  2  0  0  0  0
  5  6  1  0  0  0  0
  5 17  1  0  0  0  0
  6  7  2  0  0  0  0
  6  8  2  0  0  0  0
  6  9  1  0  0  0  0
  9 10  1  0  0  0  0
 10 11  2  0  0  0  0
 11 12  1  0  0  0  0
 12 13  2  0  0  0  0
 13 14  1  0  0  0  0
 13 15  1  0  0  0  0
 15 16  2  0  0  0  0
 16 10  1  0  0  0  0
 17 18  2  0  0  0  0
 18 19  1  0  0  0  0
 18  2  1  0  0  0  0
M  END
>  <CHROM.1>
-30.34316228,-18.25224028,-159.19065141,39.11483629,-46.02766424,7.30996682
-0.36131297,-0.47719273,0.03976157

>  <Name>
design_3

>  <RI>
0

>  <Rbt.Current_Directory>
/home/ziqiaoxu/icml18-jtnn/VAEdesign

>  <Rbt.Executable>
rbdock ($Id: //depot/dev/client3/rdock/2013.1/src/exe/rbdock.cxx#4 $)

>  <Rbt.Library>
libRbt.so (2013.1, Build901 2013/11/27)

>  <Rbt.Parameter_File>
/export/apps/rDock/src/rDock_2013.1_src//data/scripts/dock.prm

>  <Rbt.Receptor>
/home/ziqiaoxu/icml18-jtnn/VAEdesign/targets/RdRp-SARS-CoV-2/pocket_docking.prm

>  <SCORE>
-21.1362

>  <SCORE.INTER>
-18.2884

>  <SCORE.INTER.CONST>
1

>  <SCORE.INTER.POLAR>
-0.392949

>  <SCORE.INTER.REPUL>
0

>  <SCORE.INTER.ROT>
3

>  <SCORE.INTER.VDW>
-25.3524

>  <SCORE.INTER.norm>
-0.962547

>  <SCORE.INTRA>
-2.84781

>  <SCORE.INTRA.DIHEDRAL>
-6.91563

>  <SCORE.INTRA.DIHEDRAL.0>
10.8257

>  <SCORE.INTRA.POLAR>
0

>  <SCORE.INTRA.POLAR.0>
0

>  <SCORE.INTRA.REPUL>
0

>  <SCORE.INTRA.REPUL.0>
0

>  <SCORE.INTRA.VDW>
0.610001

>  <SCORE.INTRA.VDW.0>
-2.20844

>  <SCORE.INTRA.norm>
-0.149885

>  <SCORE.RESTR>
0

>  <SCORE.RESTR.CAVITY>
0

>  <SCORE.RESTR.norm>
0

>  <SCORE.SYSTEM>
0

>  <SCORE.SYSTEM.CONST>
0

>  <SCORE.SYSTEM.DIHEDRAL>
0

>  <SCORE.SYSTEM.norm>
0

>  <SCORE.heavy>
19

>  <SCORE.norm>
-1.11243

$$$$
design_0
 OpenBabel05252019093D

 26 28  0  0  0  0  0  0  0  0999 V2000
   39.9233  -46.5063   10.3574 N   0  0  0  0  0  0  0  0  0  0  0  0
   40.0948  -46.5901    8.9564 C   0  0  0  0  0  0  0  0  0  0  0  0
   39.1694  -47.0812    8.2937 O   0  0  0  0  0  0  0  0  0  0  0  0
   41.2763  -46.1271    8.3545 N   0  0  0  0  0  0  0  0  0  0  0  0
   41.5856  -46.1320    6.9966 C   0  0  0  0  0  0  0  0  0  0  0  0
   40.7277  -46.5220    6.0080 C   0  0  0  0  0  0  0  0  0  0  0  0
   41.1096  -46.4452    4.6689 C   0  0  0  0  0  0  0  0  0  0  0  0
   42.3835  -45.9640    4.3407 C   0  0  0  0  0  0  0  0  0  0  0  0
   42.7179  -45.9348    2.9676 N   0  0  0  0  0  0  0  0  0  0  0  0
   43.9891  -45.6847    2.4196 C   0  0  0  0  0  0  0  0  0  0  0  0
   45.0189  -45.4320    3.0582 O   0  0  0  0  0  0  0  0  0  0  0  0
   44.1738  -45.7159    0.9139 C   0  0  0  0  0  0  0  0  0  0  0  0
   44.5059  -44.3835    0.3809 C   0  0  0  0  0  0  0  0  0  0  0  0
   45.6918  -44.2096   -0.2919 C   0  0  0  0  0  0  0  0  0  0  0  0
   45.9963  -42.9522   -0.8040 C   0  0  0  0  0  0  0  0  0  0  0  0
   45.1523  -41.8746   -0.6614 C   0  0  0  0  0  0  0  0  0  0  0  0
   45.4763  -40.5964   -1.1769 N   0  0  0  0  0  0  0  0  0  0  0  0
   46.6581  -40.2553   -1.9305 C   0  0  0  0  0  0  0  0  0  0  0  0
   46.6800  -38.7568   -2.0397 C   0  0  0  0  0  0  0  0  0  0  0  0
   45.2156  -38.3866   -2.0006 C   0  0  0  0  0  0  0  0  0  0  0  0
   44.6995  -39.4144   -1.0506 C   0  0  0  0  0  0  0  0  0  0  0  0
   43.7318  -39.2176   -0.2836 O   0  0  0  0  0  0  0  0  0  0  0  0
   43.9614  -42.1050    0.0296 C   0  0  0  0  0  0  0  0  0  0  0  0
   43.6184  -43.3305    0.5534 C   0  0  0  0  0  0  0  0  0  0  0  0
   43.2574  -45.5702    5.3215 C   0  0  0  0  0  0  0  0  0  0  0  0
   42.8535  -45.6570    6.6320 C   0  0  0  0  0  0  0  0  0  0  0  0
  1  2  1  0  0  0  0
  2  3  2  0  0  0  0
  2  4  1  0  0  0  0
  4  5  1  0  0  0  0
  5  6  2  0  0  0  0
  6  7  1  0  0  0  0
  7  8  2  0  0  0  0
  8  9  1  0  0  0  0
  8 25  1  0  0  0  0
  9 10  1  0  0  0  0
 10 11  2  0  0  0  0
 10 12  1  0  0  0  0
 12 13  1  0  0  0  0
 13 14  2  0  0  0  0
 14 15  1  0  0  0  0
 15 16  2  0  0  0  0
 16 17  1  0  0  0  0
 16 23  1  0  0  0  0
 17 18  1  0  0  0  0
 18 19  1  0  0  0  0
 19 20  1  0  0  0  0
 20 21  1  0  0  0  0
 21 22  2  0  0  0  0
 21 17  1  0  0  0  0
 23 24  2  0  0  0  0
 24 13  1  0  0  0  0
 25 26  2  0  0  0  0
 26  5  1  0  0  0  0
M  END
>  <CHROM.1>
4.45959517,-169.91595863,113.61974636,120.24986724,2.13537024,43.41751903
-43.87248955,2.75669106,2.38952250,-1.00245413,2.89309957

>  <Name>
design_0

>  <RI>
0

>  <Rbt.Current_Directory>
/home/ziqiaoxu/icml18-jtnn/VAEdesign

>  <Rbt.Executable>
rbdock ($Id: //depot/dev/client3/rdock/2013.1/src/exe/rbdock.cxx#4 $)

>  <Rbt.Library>
libRbt.so (2013.1, Build901 2013/11/27)

>  <Rbt.Parameter_File>
/export/apps/rDock/src/rDock_2013.1_src//data/scripts/dock.prm

>  <Rbt.Receptor>
/home/ziqiaoxu/icml18-jtnn/VAEdesign/targets/RdRp-SARS-CoV-2/pocket_docking.prm

>  <SCORE>
-29.0897

>  <SCORE.INTER>
-21.9669

>  <SCORE.INTER.CONST>
1

>  <SCORE.INTER.POLAR>
-2.06351

>  <SCORE.INTER.REPUL>
0

>  <SCORE.INTER.ROT>
5

>  <SCORE.INTER.VDW>
-25.351

>  <SCORE.INTER.norm>
-0.844882

>  <SCORE.INTRA>
-7.12276

>  <SCORE.INTRA.DIHEDRAL>
-14.9486

>  <SCORE.INTRA.DIHEDRAL.0>
17.408

>  <SCORE.INTRA.POLAR>
0

>  <SCORE.INTRA.POLAR.0>
0

>  <SCORE.INTRA.REPUL>
0

>  <SCORE.INTRA.REPUL.0>
0

>  <SCORE.INTRA.VDW>
0.351565

>  <SCORE.INTRA.VDW.0>
-1.03386

>  <SCORE.INTRA.norm>
-0.273952

>  <SCORE.RESTR>
0

>  <SCORE.RESTR.CAVITY>
0

>  <SCORE.RESTR.norm>
0

>  <SCORE.SYSTEM>
0

>  <SCORE.SYSTEM.CONST>
0

>  <SCORE.SYSTEM.DIHEDRAL>
0

>  <SCORE.SYSTEM.norm>
0

>  <SCORE.heavy>
26

>  <SCORE.norm>
-1.11883

$$$$
design_7
 OpenBabel05252019093D

 22 23  0  0  0  0  0  0  0  0999 V2000
   47.2142  -47.0986    1.5274 C   0  0  0  0  0  0  0  0  0  0  0  0
   45.9152  -46.5710    1.0473 C   0  0  0  0  0  0  0  0  0  0  0  0
   45.6326  -46.5771   -0.2849 C   0  0  0  0  0  0  0  0  0  0  0  0
   44.4349  -46.0929   -0.7518 C   0  0  0  0  0  0  0  0  0  0  0  0
   43.5486  -45.6105    0.1626 C   0  0  0  0  0  0  0  0  0  0  0  0
   43.8408  -45.6050    1.5312 C   0  0  0  0  0  0  0  0  0  0  0  0
   45.0282  -46.0812    2.0315 C   0  0  0  0  0  0  0  0  0  0  0  0
   45.4022  -46.1136    3.3769 N   0  0  0  0  0  0  0  0  0  0  0  0
   44.9911  -45.2806    4.4226 C   0  0  0  0  0  0  0  0  0  0  0  0
   44.1712  -44.3424    4.2188 O   0  0  0  0  0  0  0  0  0  0  0  0
   45.4983  -45.4766    5.7656 N   0  0  0  0  0  0  0  0  0  0  0  0
   45.0599  -44.6182    6.7857 C   0  0  0  0  0  0  0  0  0  0  0  0
   43.7943  -44.9485    7.4230 C   0  0  0  0  0  0  0  0  0  0  0  0
   42.8661  -45.8673    7.0164 C   0  0  0  0  0  0  0  0  0  0  0  0
   41.6848  -46.0764    7.7393 C   0  0  0  0  0  0  0  0  0  0  0  0
   41.4097  -45.3704    8.8821 C   0  0  0  0  0  0  0  0  0  0  0  0
   39.9616  -45.5838    9.8237 S   0  0  0  0  0  0  0  0  0  0  0  0
   38.8464  -46.7023    9.0127 C   0  0  0  0  0  0  0  0  0  0  0  0
   39.2786  -44.2453    9.9531 O   0  0  0  0  0  0  0  0  0  0  0  0
   40.2575  -46.1333   11.1894 O   0  0  0  0  0  0  0  0  0  0  0  0
   42.3397  -44.4444    9.2967 C   0  0  0  0  0  0  0  0  0  0  0  0
   43.4843  -44.2437    8.5937 C   0  0  0  0  0  0  0  0  0  0  0  0
  1  2  1  0  0  0  0
  2  3  2  0  0  0  0
  3  4  1  0  0  0  0
  4  5  2  0  0  0  0
  5  6  1  0  0  0  0
  6  7  2  0  0  0  0
  7  8  1  0  0  0  0
  7  2  1  0  0  0  0
  8  9  1  0  0  0  0
  9 10  2  0  0  0  0
  9 11  1  0  0  0  0
 11 12  1  0  0  0  0
 12 13  1  0  0  0  0
 13 14  2  0  0  0  0
 14 15  1  0  0  0  0
 15 16  2  0  0  0  0
 16 17  1  0  0  0  0
 16 21  1  0  0  0  0
 17 18  1  0  0  0  0
 17 19  2  0  0  0  0
 17 20  2  0  0  0  0
 21 22  2  0  0  0  0
 22 13  1  0  0  0  0
M  END
>  <CHROM.1>
152.73483937,83.74927855,-11.46565858,-5.71686438,43.14534896,-45.59461918
5.75263025,-1.04742209,0.15506791,1.39908901

>  <Name>
design_7

>  <RI>
0

>  <Rbt.Current_Directory>
/home/ziqiaoxu/icml18-jtnn/VAEdesign

>  <Rbt.Executable>
rbdock ($Id: //depot/dev/client3/rdock/2013.1/src/exe/rbdock.cxx#4 $)

>  <Rbt.Library>
libRbt.so (2013.1, Build901 2013/11/27)

>  <Rbt.Parameter_File>
/export/apps/rDock/src/rDock_2013.1_src//data/scripts/dock.prm

>  <Rbt.Receptor>
/home/ziqiaoxu/icml18-jtnn/VAEdesign/targets/RdRp-SARS-CoV-2/pocket_docking.prm

>  <SCORE>
-19.2161

>  <SCORE.INTER>
-18.9816

>  <SCORE.INTER.CONST>
1

>  <SCORE.INTER.POLAR>
-0.891709

>  <SCORE.INTER.REPUL>
0

>  <SCORE.INTER.ROT>
4

>  <SCORE.INTER.VDW>
-25.3498

>  <SCORE.INTER.norm>
-0.862799

>  <SCORE.INTRA>
-0.234494

>  <SCORE.INTRA.DIHEDRAL>
2.6838

>  <SCORE.INTRA.DIHEDRAL.0>
3.12022

>  <SCORE.INTRA.POLAR>
0

>  <SCORE.INTRA.POLAR.0>
0

>  <SCORE.INTRA.REPUL>
0

>  <SCORE.INTRA.REPUL.0>
0

>  <SCORE.INTRA.VDW>
-1.57639

>  <SCORE.INTRA.VDW.0>
0.941354

>  <SCORE.INTRA.norm>
-0.0106588

>  <SCORE.RESTR>
0

>  <SCORE.RESTR.CAVITY>
0

>  <SCORE.RESTR.norm>
0

>  <SCORE.SYSTEM>
0

>  <SCORE.SYSTEM.CONST>
0

>  <SCORE.SYSTEM.DIHEDRAL>
0

>  <SCORE.SYSTEM.norm>
0

>  <SCORE.heavy>
22

>  <SCORE.norm>
-0.873457

$$$$
design_12
 OpenBabel05252019093D

 24 25  0  0  0  0  0  0  0  0999 V2000
   39.8605  -46.3118   10.4728 N   0  0  0  0  0  0  0  0  0  0  0  0
   40.0113  -45.7825    9.1723 C   0  0  0  0  0  0  0  0  0  0  0  0
   40.2374  -44.5651    9.0279 O   0  0  0  0  0  0  0  0  0  0  0  0
   39.9039  -46.6510    8.0031 C   0  0  0  0  0  0  0  0  0  0  0  0
   39.2183  -47.8501    8.0935 C   0  0  0  0  0  0  0  0  0  0  0  0
   39.1106  -48.6722    7.0050 C   0  0  0  0  0  0  0  0  0  0  0  0
   39.6924  -48.3127    5.7840 C   0  0  0  0  0  0  0  0  0  0  0  0
   40.3789  -47.1361    5.6538 C   0  0  0  0  0  0  0  0  0  0  0  0
   41.0103  -46.6894    4.4781 N   0  0  0  0  0  0  0  0  0  0  0  0
   41.6818  -45.4832    4.2909 C   0  0  0  0  0  0  0  0  0  0  0  0
   41.8032  -44.6196    5.1815 O   0  0  0  0  0  0  0  0  0  0  0  0
   42.3200  -45.1465    2.9535 C   0  0  0  0  0  0  0  0  0  0  0  0
   41.2878  -44.4742    2.1175 C   0  0  0  0  0  0  0  0  0  0  0  0
   41.6685  -43.1782    1.6432 N   0  0  0  0  0  0  0  0  0  0  0  0
   42.8871  -42.9060    0.9710 C   0  0  0  0  0  0  0  0  0  0  0  0
   43.7120  -43.8489    0.7626 O   0  0  0  0  0  0  0  0  0  0  0  0
   43.2355  -41.5774    0.5052 C   0  0  0  0  0  0  0  0  0  0  0  0
   42.4846  -40.5063    0.9451 C   0  0  0  0  0  0  0  0  0  0  0  0
   42.7338  -39.2157    0.5632 C   0  0  0  0  0  0  0  0  0  0  0  0
   43.7787  -38.9569   -0.2996 C   0  0  0  0  0  0  0  0  0  0  0  0
   44.5643  -40.0089   -0.7696 C   0  0  0  0  0  0  0  0  0  0  0  0
   45.8815  -39.6447   -1.8626 Cl  0  0  0  0  0  0  0  0  0  0  0  0
   44.2670  -41.2811   -0.3522 C   0  0  0  0  0  0  0  0  0  0  0  0
   40.4520  -46.3429    6.8005 C   0  0  0  0  0  0  0  0  0  0  0  0
  1  2  1  0  0  0  0
  2  3  2  0  0  0  0
  2  4  1  0  0  0  0
  4  5  2  0  0  0  0
  5  6  1  0  0  0  0
  6  7  2  0  0  0  0
  7  8  1  0  0  0  0
  8  9  1  0  0  0  0
  8 24  2  0  0  0  0
  9 10  1  0  0  0  0
 10 11  2  0  0  0  0
 10 12  1  0  0  0  0
 12 13  1  0  0  0  0
 13 14  1  0  0  0  0
 14 15  1  0  0  0  0
 15 16  2  0  0  0  0
 15 17  1  0  0  0  0
 17 18  2  0  0  0  0
 18 19  1  0  0  0  0
 19 20  2  0  0  0  0
 20 21  1  0  0  0  0
 21 22  1  0  0  0  0
 21 23  2  0  0  0  0
 23 17  1  0  0  0  0
 24  4  1  0  0  0  0
M  END
>  <CHROM.1>
22.41164449,177.83228555,88.38080244,123.48236996,51.30820712,12.39124158
42.00481070,-43.87717206,3.50038955,-3.10049674,-1.17570719,-2.44264448

>  <Name>
design_12

>  <RI>
0

>  <Rbt.Current_Directory>
/home/ziqiaoxu/icml18-jtnn/VAEdesign

>  <Rbt.Executable>
rbdock ($Id: //depot/dev/client3/rdock/2013.1/src/exe/rbdock.cxx#4 $)

>  <Rbt.Library>
libRbt.so (2013.1, Build901 2013/11/27)

>  <Rbt.Parameter_File>
/export/apps/rDock/src/rDock_2013.1_src//data/scripts/dock.prm

>  <Rbt.Receptor>
/home/ziqiaoxu/icml18-jtnn/VAEdesign/targets/RdRp-SARS-CoV-2/pocket_docking.prm

>  <SCORE>
-26.0344

>  <SCORE.INTER>
-27.6195

>  <SCORE.INTER.CONST>
1

>  <SCORE.INTER.POLAR>
-4.03812

>  <SCORE.INTER.REPUL>
0.0106033

>  <SCORE.INTER.ROT>
6

>  <SCORE.INTER.VDW>
-25.3429

>  <SCORE.INTER.norm>
-1.15081

>  <SCORE.INTRA>
1.58518

>  <SCORE.INTRA.DIHEDRAL>
8.21112

>  <SCORE.INTRA.DIHEDRAL.0>
2.79258

>  <SCORE.INTRA.POLAR>
0

>  <SCORE.INTRA.POLAR.0>
0

>  <SCORE.INTRA.REPUL>
0

>  <SCORE.INTRA.REPUL.0>
0

>  <SCORE.INTRA.VDW>
-2.52038

>  <SCORE.INTRA.VDW.0>
2.19032

>  <SCORE.INTRA.norm>
0.066049

>  <SCORE.RESTR>
0

>  <SCORE.RESTR.CAVITY>
0

>  <SCORE.RESTR.norm>
0

>  <SCORE.SYSTEM>
0

>  <SCORE.SYSTEM.CONST>
0

>  <SCORE.SYSTEM.DIHEDRAL>
0

>  <SCORE.SYSTEM.norm>
0

>  <SCORE.heavy>
24

>  <SCORE.norm>
-1.08476

$$$$
design_9
 OpenBabel05252019093D

 27 30  0  0  0  0  0  0  0  0999 V2000
   37.9123  -46.4921    8.7406 C   0  0  0  0  0  0  0  0  0  0  0  0
   38.7756  -46.9051    7.5596 C   0  0  0  0  0  0  0  0  0  0  0  0
   39.2626  -46.1309    6.6118 N   0  0  0  0  0  0  0  0  0  0  0  0
   39.9879  -46.6409    5.6643 C   0  0  0  0  0  0  0  0  0  0  0  0
   40.5805  -45.8001    4.5798 C   0  0  0  0  0  0  0  0  0  0  0  0
   41.7969  -46.0911    4.0218 C   0  0  0  0  0  0  0  0  0  0  0  0
   42.3590  -45.2988    3.0382 C   0  0  0  0  0  0  0  0  0  0  0  0
   41.6980  -44.1577    2.5724 C   0  0  0  0  0  0  0  0  0  0  0  0
   42.3454  -43.3106    1.5358 C   0  0  0  0  0  0  0  0  0  0  0  0
   41.6728  -42.0579    1.4341 N   0  0  0  0  0  0  0  0  0  0  0  0
   42.3361  -40.8229    1.2732 C   0  0  0  0  0  0  0  0  0  0  0  0
   43.5765  -40.7720    1.2270 O   0  0  0  0  0  0  0  0  0  0  0  0
   41.4538  -39.6077    1.1672 C   0  0  0  0  0  0  0  0  0  0  0  0
   41.0314  -39.2243    2.5206 C   0  0  0  0  0  0  0  0  0  0  0  0
   40.0389  -38.2438    2.6446 C   0  0  0  0  0  0  0  0  0  0  0  0
   39.6045  -37.8130    3.8777 C   0  0  0  0  0  0  0  0  0  0  0  0
   40.1523  -38.3525    5.0297 C   0  0  0  0  0  0  0  0  0  0  0  0
   41.1228  -39.3131    4.9286 C   0  0  0  0  0  0  0  0  0  0  0  0
   41.5566  -39.7421    3.6825 C   0  0  0  0  0  0  0  0  0  0  0  0
   41.6303  -39.8128    6.1115 O   0  0  0  0  0  0  0  0  0  0  0  0
   41.2162  -39.4521    7.4050 C   0  0  0  0  0  0  0  0  0  0  0  0
   40.2415  -38.3275    7.4856 C   0  0  0  0  0  0  0  0  0  0  0  0
   39.7243  -37.9254    6.2517 O   0  0  0  0  0  0  0  0  0  0  0  0
   40.4785  -43.8650    3.1295 C   0  0  0  0  0  0  0  0  0  0  0  0
   39.9234  -44.6803    4.1256 C   0  0  0  0  0  0  0  0  0  0  0  0
   40.2118  -47.9972    5.7069 C   0  0  0  0  0  0  0  0  0  0  0  0
   39.3578  -48.4478    7.1165 S   0  0  0  0  0  0  0  0  0  0  0  0
  1  2  1  0  0  0  0
  2  3  2  0  0  0  0
  3  4  1  0  0  0  0
  4  5  1  0  0  0  0
  4 26  2  0  0  0  0
  5  6  2  0  0  0  0
  6  7  1  0  0  0  0
  7  8  2  0  0  0  0
  8  9  1  0  0  0  0
  8 24  1  0  0  0  0
  9 10  1  0  0  0  0
 10 11  1  0  0  0  0
 11 12  2  0  0  0  0
 11 13  1  0  0  0  0
 13 14  1  0  0  0  0
 14 15  2  0  0  0  0
 15 16  1  0  0  0  0
 16 17  2  0  0  0  0
 17 18  1  0  0  0  0
 18 19  2  0  0  0  0
 18 20  1  0  0  0  0
 19 14  1  0  0  0  0
 20 21  1  0  0  0  0
 21 22  1  0  0  0  0
 22 23  1  0  0  0  0
 23 17  1  0  0  0  0
 24 25  2  0  0  0  0
 25  5  1  0  0  0  0
 26 27  1  0  0  0  0
 27  2  1  0  0  0  0
M  END
>  <CHROM.1>
146.06992367,-166.30956060,139.22714874,79.88487504,-170.33140842,40.68438223
-42.72032898,4.57711330,1.98125838,-1.13671738,-3.08442240

>  <Name>
design_9

>  <RI>
0

>  <Rbt.Current_Directory>
/home/ziqiaoxu/icml18-jtnn/VAEdesign

>  <Rbt.Executable>
rbdock ($Id: //depot/dev/client3/rdock/2013.1/src/exe/rbdock.cxx#4 $)

>  <Rbt.Library>
libRbt.so (2013.1, Build901 2013/11/27)

>  <Rbt.Parameter_File>
/export/apps/rDock/src/rDock_2013.1_src//data/scripts/dock.prm

>  <Rbt.Receptor>
/home/ziqiaoxu/icml18-jtnn/VAEdesign/targets/RdRp-SARS-CoV-2/pocket_docking.prm

>  <SCORE>
-15.4316

>  <SCORE.INTER>
-18.4377

>  <SCORE.INTER.CONST>
1

>  <SCORE.INTER.POLAR>
-1.05895

>  <SCORE.INTER.REPUL>
0.0205012

>  <SCORE.INTER.ROT>
5

>  <SCORE.INTER.VDW>
-25.3398

>  <SCORE.INTER.norm>
-0.682878

>  <SCORE.INTRA>
3.00608

>  <SCORE.INTRA.DIHEDRAL>
3.7146

>  <SCORE.INTRA.DIHEDRAL.0>
4.00025

>  <SCORE.INTRA.POLAR>
0

>  <SCORE.INTRA.POLAR.0>
0

>  <SCORE.INTRA.REPUL>
0

>  <SCORE.INTRA.REPUL.0>
0

>  <SCORE.INTRA.VDW>
1.14878

>  <SCORE.INTRA.VDW.0>
-1.36312

>  <SCORE.INTRA.norm>
0.111336

>  <SCORE.RESTR>
0

>  <SCORE.RESTR.CAVITY>
0

>  <SCORE.RESTR.norm>
0

>  <SCORE.SYSTEM>
0

>  <SCORE.SYSTEM.CONST>
0

>  <SCORE.SYSTEM.DIHEDRAL>
0

>  <SCORE.SYSTEM.norm>
0

>  <SCORE.heavy>
27

>  <SCORE.norm>
-0.571542

$$$$
design_4
 OpenBabel05252019093D

 26 29  0  0  0  0  0  0  0  0999 V2000
   45.0629  -46.6362   -0.3931 C   0  0  0  0  0  0  0  0  0  0  0  0
   44.2365  -45.4803    0.0650 C   0  0  0  0  0  0  0  0  0  0  0  0
   43.0757  -45.5320    0.7576 N   0  0  0  0  0  0  0  0  0  0  0  0
   42.6329  -44.3089    0.9856 N   0  0  0  0  0  0  0  0  0  0  0  0
   43.4909  -43.4243    0.4492 C   0  0  0  0  0  0  0  0  0  0  0  0
   43.3908  -41.9564    0.4644 C   0  0  0  0  0  0  0  0  0  0  0  0
   44.3424  -41.1672   -0.1432 C   0  0  0  0  0  0  0  0  0  0  0  0
   44.2730  -39.7976   -0.1454 C   0  0  0  0  0  0  0  0  0  0  0  0
   43.1860  -39.1959    0.4999 C   0  0  0  0  0  0  0  0  0  0  0  0
   42.2228  -39.9434    1.1137 C   0  0  0  0  0  0  0  0  0  0  0  0
   41.1165  -39.3844    1.7910 N   0  0  0  0  0  0  0  0  0  0  0  0
   40.9035  -38.0407    2.0932 C   0  0  0  0  0  0  0  0  0  0  0  0
   41.6669  -37.0991    1.8152 O   0  0  0  0  0  0  0  0  0  0  0  0
   39.6471  -37.6074    2.8283 C   0  0  0  0  0  0  0  0  0  0  0  0
   39.8869  -37.4102    4.2642 C   0  0  0  0  0  0  0  0  0  0  0  0
   40.0859  -36.1866    4.9135 C   0  0  0  0  0  0  0  0  0  0  0  0
   40.2719  -36.4131    6.2170 N   0  0  0  0  0  0  0  0  0  0  0  0
   40.2065  -37.7389    6.4741 C   0  0  0  0  0  0  0  0  0  0  0  0
   40.3351  -38.4422    7.6550 C   0  0  0  0  0  0  0  0  0  0  0  0
   40.2187  -39.8009    7.6011 C   0  0  0  0  0  0  0  0  0  0  0  0
   40.3450  -40.5051    8.7571 F   0  0  0  0  0  0  0  0  0  0  0  0
   39.9813  -40.4588    6.4181 C   0  0  0  0  0  0  0  0  0  0  0  0
   39.8566  -39.7358    5.2542 C   0  0  0  0  0  0  0  0  0  0  0  0
   39.9662  -38.3635    5.2559 C   0  0  0  0  0  0  0  0  0  0  0  0
   42.3388  -41.3522    1.0885 C   0  0  0  0  0  0  0  0  0  0  0  0
   44.4660  -44.1546   -0.1102 N   0  0  0  0  0  0  0  0  0  0  0  0
  1  2  1  0  0  0  0
  2  3  2  0  0  0  0
  3  4  1  0  0  0  0
  4  5  1  0  0  0  0
  5  6  1  0  0  0  0
  5 26  2  0  0  0  0
  6  7  2  0  0  0  0
  7  8  1  0  0  0  0
  8  9  2  0  0  0  0
  9 10  1  0  0  0  0
 10 11  1  0  0  0  0
 10 25  2  0  0  0  0
 11 12  1  0  0  0  0
 12 13  2  0  0  0  0
 12 14  1  0  0  0  0
 14 15  1  0  0  0  0
 15 16  2  0  0  0  0
 16 17  1  0  0  0  0
 17 18  1  0  0  0  0
 18 19  2  0  0  0  0
 19 20  1  0  0  0  0
 20 21  1  0  0  0  0
 20 22  2  0  0  0  0
 22 23  1  0  0  0  0
 23 24  2  0  0  0  0
 24 15  1  0  0  0  0
 24 18  1  0  0  0  0
 25  6  1  0  0  0  0
 26  2  1  0  0  0  0
M  END
>  <CHROM.1>
-179.22647908,-8.62028892,99.05796547,100.26628513,41.80555598,-40.41401412
2.97986425,0.18005044,-1.13724669,2.56430283

>  <Name>
design_4

>  <RI>
0

>  <Rbt.Current_Directory>
/home/ziqiaoxu/icml18-jtnn/VAEdesign

>  <Rbt.Executable>
rbdock ($Id: //depot/dev/client3/rdock/2013.1/src/exe/rbdock.cxx#4 $)

>  <Rbt.Library>
libRbt.so (2013.1, Build901 2013/11/27)

>  <Rbt.Parameter_File>
/export/apps/rDock/src/rDock_2013.1_src//data/scripts/dock.prm

>  <Rbt.Receptor>
/home/ziqiaoxu/icml18-jtnn/VAEdesign/targets/RdRp-SARS-CoV-2/pocket_docking.prm

>  <SCORE>
-23.907

>  <SCORE.INTER>
-23.09

>  <SCORE.INTER.CONST>
1

>  <SCORE.INTER.POLAR>
-2.10481

>  <SCORE.INTER.REPUL>
0

>  <SCORE.INTER.ROT>
4

>  <SCORE.INTER.VDW>
-25.3336

>  <SCORE.INTER.norm>
-0.888076

>  <SCORE.INTRA>
-1.00111

>  <SCORE.INTRA.DIHEDRAL>
-0.135441

>  <SCORE.INTRA.DIHEDRAL.0>
2.46213

>  <SCORE.INTRA.POLAR>
0

>  <SCORE.INTRA.POLAR.0>
0

>  <SCORE.INTRA.REPUL>
0

>  <SCORE.INTRA.REPUL.0>
0

>  <SCORE.INTRA.VDW>
-0.933392

>  <SCORE.INTRA.VDW.0>
-0.933519

>  <SCORE.INTRA.norm>
-0.0385043

>  <SCORE.RESTR>
0.184084

>  <SCORE.RESTR.CAVITY>
0.184084

>  <SCORE.RESTR.norm>
0.00708015

>  <SCORE.SYSTEM>
0

>  <SCORE.SYSTEM.CONST>
0

>  <SCORE.SYSTEM.DIHEDRAL>
0

>  <SCORE.SYSTEM.norm>
0

>  <SCORE.heavy>
26

>  <SCORE.norm>
-0.919501

$$$$
design_6
 OpenBabel05252019093D

 23 25  0  0  0  0  0  0  0  0999 V2000
   36.9099  -46.3297    7.9170 O   0  0  0  0  0  0  0  0  0  0  0  0
   37.8360  -46.9753    7.3540 C   0  0  0  0  0  0  0  0  0  0  0  0
   38.7736  -47.7295    8.2075 C   0  0  0  0  0  0  0  0  0  0  0  0
   39.8610  -46.8438    8.6883 C   0  0  0  0  0  0  0  0  0  0  0  0
   40.9964  -46.5034    8.0511 N   0  0  0  0  0  0  0  0  0  0  0  0
   41.7313  -45.6820    8.8083 C   0  0  0  0  0  0  0  0  0  0  0  0
   43.0220  -45.0776    8.5080 C   0  0  0  0  0  0  0  0  0  0  0  0
   43.6651  -45.4109    7.3113 C   0  0  0  0  0  0  0  0  0  0  0  0
   44.8725  -44.8713    6.9872 C   0  0  0  0  0  0  0  0  0  0  0  0
   45.4685  -43.9882    7.8452 C   0  0  0  0  0  0  0  0  0  0  0  0
   44.8502  -43.6468    9.0303 C   0  0  0  0  0  0  0  0  0  0  0  0
   43.6294  -44.1881    9.3652 C   0  0  0  0  0  0  0  0  0  0  0  0
   41.0385  -45.5053    9.9458 N   0  0  0  0  0  0  0  0  0  0  0  0
   39.9021  -46.2107    9.8735 N   0  0  0  0  0  0  0  0  0  0  0  0
   37.9809  -46.9818    5.9301 N   0  0  0  0  0  0  0  0  0  0  0  0
   37.0607  -46.2429    5.0984 C   0  0  0  0  0  0  0  0  0  0  0  0
   36.9758  -44.8102    5.4573 C   0  0  0  0  0  0  0  0  0  0  0  0
   38.1108  -44.0870    5.7525 C   0  0  0  0  0  0  0  0  0  0  0  0
   38.0024  -42.7543    6.0830 C   0  0  0  0  0  0  0  0  0  0  0  0
   36.7925  -42.1197    6.1280 C   0  0  0  0  0  0  0  0  0  0  0  0
   36.7043  -40.8044    6.4563 F   0  0  0  0  0  0  0  0  0  0  0  0
   35.6512  -42.8589    5.8282 C   0  0  0  0  0  0  0  0  0  0  0  0
   35.7565  -44.1970    5.4961 C   0  0  0  0  0  0  0  0  0  0  0  0
  1  2  2  0  0  0  0
  2  3  1  0  0  0  0
  2 15  1  0  0  0  0
  3  4  1  0  0  0  0
  4  5  2  0  0  0  0
  5  6  1  0  0  0  0
  6  7  1  0  0  0  0
  6 13  2  0  0  0  0
  7  8  2  0  0  0  0
  8  9  1  0  0  0  0
  9 10  2  0  0  0  0
 10 11  1  0  0  0  0
 11 12  2  0  0  0  0
 12  7  1  0  0  0  0
 13 14  1  0  0  0  0
 14  4  1  0  0  0  0
 15 16  1  0  0  0  0
 16 17  1  0  0  0  0
 17 18  2  0  0  0  0
 18 19  1  0  0  0  0
 19 20  2  0  0  0  0
 20 21  1  0  0  0  0
 20 22  1  0  0  0  0
 22 23  2  0  0  0  0
 23 17  1  0  0  0  0
M  END
>  <CHROM.1>
-84.75353343,-83.63695738,-3.55300508,55.41099677,42.60124518,39.71364845
-44.91918159,7.39463190,2.92804373,-0.28329207,-0.30178454

>  <Name>
design_6

>  <RI>
0

>  <Rbt.Current_Directory>
/home/ziqiaoxu/icml18-jtnn/VAEdesign

>  <Rbt.Executable>
rbdock ($Id: //depot/dev/client3/rdock/2013.1/src/exe/rbdock.cxx#4 $)

>  <Rbt.Library>
libRbt.so (2013.1, Build901 2013/11/27)

>  <Rbt.Parameter_File>
/export/apps/rDock/src/rDock_2013.1_src//data/scripts/dock.prm

>  <Rbt.Receptor>
/home/ziqiaoxu/icml18-jtnn/VAEdesign/targets/RdRp-SARS-CoV-2/pocket_docking.prm

>  <SCORE>
-19.6016

>  <SCORE.INTER>
-18.3998

>  <SCORE.INTER.CONST>
1

>  <SCORE.INTER.POLAR>
-1.0198

>  <SCORE.INTER.REPUL>
0

>  <SCORE.INTER.ROT>
5

>  <SCORE.INTER.VDW>
-25.3325

>  <SCORE.INTER.norm>
-0.799991

>  <SCORE.INTRA>
-1.20185

>  <SCORE.INTRA.DIHEDRAL>
0.0505172

>  <SCORE.INTRA.DIHEDRAL.0>
4.61385

>  <SCORE.INTRA.POLAR>
0

>  <SCORE.INTRA.POLAR.0>
0

>  <SCORE.INTRA.REPUL>
0

>  <SCORE.INTRA.REPUL.0>
0

>  <SCORE.INTRA.VDW>
-1.22711

>  <SCORE.INTRA.VDW.0>
-1.06505

>  <SCORE.INTRA.norm>
-0.0522543

>  <SCORE.RESTR>
0

>  <SCORE.RESTR.CAVITY>
0

>  <SCORE.RESTR.norm>
0

>  <SCORE.SYSTEM>
0

>  <SCORE.SYSTEM.CONST>
0

>  <SCORE.SYSTEM.DIHEDRAL>
0

>  <SCORE.SYSTEM.norm>
0

>  <SCORE.heavy>
23

>  <SCORE.norm>
-0.852245

$$$$
design_4
 OpenBabel05252019093D

 25 27  0  0  0  0  0  0  0  0999 V2000
   38.3587  -46.7507    9.0273 C   0  0  0  0  0  0  0  0  0  0  0  0
   39.6977  -46.1032    8.9917 C   0  0  0  0  0  0  0  0  0  0  0  0
   40.1061  -45.3597   10.0555 C   0  0  0  0  0  0  0  0  0  0  0  0
   41.3522  -44.7519   10.0252 C   0  0  0  0  0  0  0  0  0  0  0  0
   42.1684  -44.9035    8.9208 C   0  0  0  0  0  0  0  0  0  0  0  0
   43.5055  -44.2654    8.8646 C   0  0  0  0  0  0  0  0  0  0  0  0
   41.7746  -45.6523    7.8319 C   0  0  0  0  0  0  0  0  0  0  0  0
   42.6551  -45.7812    6.6882 C   0  0  0  0  0  0  0  0  0  0  0  0
   42.0802  -46.0376    5.4220 N   0  0  0  0  0  0  0  0  0  0  0  0
   41.7071  -44.9234    4.5987 C   0  0  0  0  0  0  0  0  0  0  0  0
   41.8715  -43.7390    4.9828 O   0  0  0  0  0  0  0  0  0  0  0  0
   41.1364  -45.1306    3.3143 N   0  0  0  0  0  0  0  0  0  0  0  0
   40.7326  -44.0570    2.4538 C   0  0  0  0  0  0  0  0  0  0  0  0
   41.8328  -43.5019    1.6347 C   0  0  0  0  0  0  0  0  0  0  0  0
   42.9256  -44.1982    1.2164 C   0  0  0  0  0  0  0  0  0  0  0  0
   43.9112  -43.5694    0.4455 C   0  0  0  0  0  0  0  0  0  0  0  0
   43.8117  -42.2439    0.0883 C   0  0  0  0  0  0  0  0  0  0  0  0
   44.7809  -41.5596   -0.6873 N   0  0  0  0  0  0  0  0  0  0  0  0
   44.8315  -40.2491   -0.9946 C   0  0  0  0  0  0  0  0  0  0  0  0
   45.9143  -40.0053   -1.7548 N   0  0  0  0  0  0  0  0  0  0  0  0
   46.5571  -41.1717   -1.9319 C   0  0  0  0  0  0  0  0  0  0  0  0
   45.8535  -42.1096   -1.2749 N   0  0  0  0  0  0  0  0  0  0  0  0
   42.6956  -41.5651    0.5256 C   0  0  0  0  0  0  0  0  0  0  0  0
   41.7141  -42.1624    1.2842 C   0  0  0  0  0  0  0  0  0  0  0  0
   40.5372  -46.2399    7.8938 C   0  0  0  0  0  0  0  0  0  0  0  0
  1  2  1  0  0  0  0
  2  3  2  0  0  0  0
  3  4  1  0  0  0  0
  4  5  2  0  0  0  0
  5  6  1  0  0  0  0
  5  7  1  0  0  0  0
  7  8  1  0  0  0  0
  7 25  2  0  0  0  0
  8  9  1  0  0  0  0
  9 10  1  0  0  0  0
 10 11  2  0  0  0  0
 10 12  1  0  0  0  0
 12 13  1  0  0  0  0
 13 14  1  0  0  0  0
 14 15  2  0  0  0  0
 15 16  1  0  0  0  0
 16 17  2  0  0  0  0
 17 18  1  0  0  0  0
 17 23  1  0  0  0  0
 18 19  1  0  0  0  0
 19 20  2  0  0  0  0
 20 21  1  0  0  0  0
 21 22  2  0  0  0  0
 22 18  1  0  0  0  0
 23 24  2  0  0  0  0
 24 14  1  0  0  0  0
 25  2  1  0  0  0  0
M  END
>  <CHROM.1>
-153.85952800,89.85284516,84.48817646,28.69382343,-173.99565974,42.49839299
-43.85749472,3.91112837,1.98922926,0.50296238,1.77005556

>  <Name>
design_4

>  <RI>
0

>  <Rbt.Current_Directory>
/home/ziqiaoxu/icml18-jtnn/VAEdesign

>  <Rbt.Executable>
rbdock ($Id: //depot/dev/client3/rdock/2013.1/src/exe/rbdock.cxx#4 $)

>  <Rbt.Library>
libRbt.so (2013.1, Build901 2013/11/27)

>  <Rbt.Parameter_File>
/export/apps/rDock/src/rDock_2013.1_src//data/scripts/dock.prm

>  <Rbt.Receptor>
/home/ziqiaoxu/icml18-jtnn/VAEdesign/targets/RdRp-SARS-CoV-2/pocket_docking.prm

>  <SCORE>
-24.3591

>  <SCORE.INTER>
-18.5568

>  <SCORE.INTER.CONST>
1

>  <SCORE.INTER.POLAR>
-1.08972

>  <SCORE.INTER.REPUL>
0.0154962

>  <SCORE.INTER.ROT>
5

>  <SCORE.INTER.VDW>
-25.3292

>  <SCORE.INTER.norm>
-0.74227

>  <SCORE.INTRA>
-5.8023

>  <SCORE.INTRA.DIHEDRAL>
-12.3083

>  <SCORE.INTRA.DIHEDRAL.0>
16.2775

>  <SCORE.INTRA.POLAR>
0

>  <SCORE.INTRA.POLAR.0>
0

>  <SCORE.INTRA.REPUL>
0

>  <SCORE.INTRA.REPUL.0>
0

>  <SCORE.INTRA.VDW>
0.351841

>  <SCORE.INTRA.VDW.0>
-2.02821

>  <SCORE.INTRA.norm>
-0.232092

>  <SCORE.RESTR>
0

>  <SCORE.RESTR.CAVITY>
0

>  <SCORE.RESTR.norm>
0

>  <SCORE.SYSTEM>
0

>  <SCORE.SYSTEM.CONST>
0

>  <SCORE.SYSTEM.DIHEDRAL>
0

>  <SCORE.SYSTEM.norm>
0

>  <SCORE.heavy>
25

>  <SCORE.norm>
-0.974363

$$$$
design_2
 OpenBabel05252019093D

 22 24  0  0  0  0  0  0  0  0999 V2000
   41.3411  -44.1226   10.5413 C   0  0  0  0  0  0  0  0  0  0  0  0
   41.5992  -44.9398    9.3215 C   0  0  0  0  0  0  0  0  0  0  0  0
   42.6761  -44.6409    8.5044 C   0  0  0  0  0  0  0  0  0  0  0  0
   42.9289  -45.3824    7.3770 C   0  0  0  0  0  0  0  0  0  0  0  0
   42.0895  -46.4338    7.0704 C   0  0  0  0  0  0  0  0  0  0  0  0
   41.0015  -46.7601    7.8689 C   0  0  0  0  0  0  0  0  0  0  0  0
   40.0921  -47.8032    7.6136 N   0  0  0  0  0  0  0  0  0  0  0  0
   39.2579  -47.8853    6.1173 S   0  0  0  0  0  0  0  0  0  0  0  0
   38.5095  -49.1768    5.9303 O   0  0  0  0  0  0  0  0  0  0  0  0
   40.3381  -47.9076    5.0386 O   0  0  0  0  0  0  0  0  0  0  0  0
   38.2027  -46.5133    5.8872 C   0  0  0  0  0  0  0  0  0  0  0  0
   36.8889  -46.7377    5.5544 C   0  0  0  0  0  0  0  0  0  0  0  0
   36.0040  -45.6669    5.3597 C   0  0  0  0  0  0  0  0  0  0  0  0
   36.4483  -44.3825    5.5013 C   0  0  0  0  0  0  0  0  0  0  0  0
   37.7662  -44.1406    5.8355 C   0  0  0  0  0  0  0  0  0  0  0  0
   38.6218  -45.2117    6.0230 C   0  0  0  0  0  0  0  0  0  0  0  0
   38.1480  -42.8178    5.9624 O   0  0  0  0  0  0  0  0  0  0  0  0
   37.2634  -41.8446    6.4844 C   0  0  0  0  0  0  0  0  0  0  0  0
   35.8357  -42.0878    6.0937 C   0  0  0  0  0  0  0  0  0  0  0  0
   35.6466  -43.2557    5.3285 O   0  0  0  0  0  0  0  0  0  0  0  0
   40.7676  -45.9911    9.0071 C   0  0  0  0  0  0  0  0  0  0  0  0
   39.6205  -46.3254    9.8592 C   0  0  0  0  0  0  0  0  0  0  0  0
  1  2  1  0  0  0  0
  2  3  2  0  0  0  0
  3  4  1  0  0  0  0
  4  5  2  0  0  0  0
  5  6  1  0  0  0  0
  6  7  1  0  0  0  0
  6 21  2  0  0  0  0
  7  8  1  0  0  0  0
  8  9  2  0  0  0  0
  8 10  2  0  0  0  0
  8 11  1  0  0  0  0
 11 12  2  0  0  0  0
 12 13  1  0  0  0  0
 13 14  2  0  0  0  0
 14 15  1  0  0  0  0
 15 16  2  0  0  0  0
 15 17  1  0  0  0  0
 16 11  1  0  0  0  0
 17 18  1  0  0  0  0
 18 19  1  0  0  0  0
 19 20  1  0  0  0  0
 20 14  1  0  0  0  0
 21 22  1  0  0  0  0
 21  2  1  0  0  0  0
M  END
>  <CHROM.1>
-55.16700462,170.42670578,-128.40634347,39.11207869,-45.60517948,6.86116072
-0.26550906,-0.59440250,0.35222626

>  <Name>
design_2

>  <RI>
0

>  <Rbt.Current_Directory>
/home/ziqiaoxu/icml18-jtnn/VAEdesign

>  <Rbt.Executable>
rbdock ($Id: //depot/dev/client3/rdock/2013.1/src/exe/rbdock.cxx#4 $)

>  <Rbt.Library>
libRbt.so (2013.1, Build901 2013/11/27)

>  <Rbt.Parameter_File>
/export/apps/rDock/src/rDock_2013.1_src//data/scripts/dock.prm

>  <Rbt.Receptor>
/home/ziqiaoxu/icml18-jtnn/VAEdesign/targets/RdRp-SARS-CoV-2/pocket_docking.prm

>  <SCORE>
-16.4282

>  <SCORE.INTER>
-16.7481

>  <SCORE.INTER.CONST>
1

>  <SCORE.INTER.POLAR>
0

>  <SCORE.INTER.REPUL>
0.0361391

>  <SCORE.INTER.ROT>
3

>  <SCORE.INTER.VDW>
-25.3288

>  <SCORE.INTER.norm>
-0.761279

>  <SCORE.INTRA>
0.319914

>  <SCORE.INTRA.DIHEDRAL>
2.81107

>  <SCORE.INTRA.DIHEDRAL.0>
8.30794

>  <SCORE.INTRA.POLAR>
0

>  <SCORE.INTRA.POLAR.0>
0

>  <SCORE.INTRA.REPUL>
0

>  <SCORE.INTRA.REPUL.0>
0

>  <SCORE.INTRA.VDW>
-1.08562

>  <SCORE.INTRA.VDW.0>
-1.53915

>  <SCORE.INTRA.norm>
0.0145416

>  <SCORE.RESTR>
0

>  <SCORE.RESTR.CAVITY>
0

>  <SCORE.RESTR.norm>
0

>  <SCORE.SYSTEM>
0

>  <SCORE.SYSTEM.CONST>
0

>  <SCORE.SYSTEM.DIHEDRAL>
0

>  <SCORE.SYSTEM.norm>
0

>  <SCORE.heavy>
22

>  <SCORE.norm>
-0.746737

$$$$
design_5
 OpenBabel05252019093D

 23 25  0  0  0  0  0  0  0  0999 V2000
   47.1169  -47.0329    0.0793 C   0  0  0  0  0  0  0  0  0  0  0  0
   45.8403  -46.5233    0.6615 C   0  0  0  0  0  0  0  0  0  0  0  0
   44.7626  -46.2520   -0.1569 C   0  0  0  0  0  0  0  0  0  0  0  0
   43.5960  -45.7813    0.4174 C   0  0  0  0  0  0  0  0  0  0  0  0
   43.4918  -45.5809    1.7753 C   0  0  0  0  0  0  0  0  0  0  0  0
   44.5892  -45.8637    2.5556 C   0  0  0  0  0  0  0  0  0  0  0  0
   44.4440  -45.6386    4.0124 C   0  0  0  0  0  0  0  0  0  0  0  0
   43.3722  -45.4730    4.7399 N   0  0  0  0  0  0  0  0  0  0  0  0
   43.4660  -45.2872    6.0204 C   0  0  0  0  0  0  0  0  0  0  0  0
   42.2593  -45.0907    6.9235 C   0  0  0  0  0  0  0  0  0  0  0  0
   41.0376  -45.5269    6.2591 N   0  0  0  0  0  0  0  0  0  0  0  0
   40.3344  -46.6604    6.6801 C   0  0  0  0  0  0  0  0  0  0  0  0
   40.0706  -47.6643    5.7416 C   0  0  0  0  0  0  0  0  0  0  0  0
   39.3487  -48.8022    6.0841 C   0  0  0  0  0  0  0  0  0  0  0  0
   38.8718  -48.9728    7.3596 C   0  0  0  0  0  0  0  0  0  0  0  0
   39.1365  -47.9849    8.2655 C   0  0  0  0  0  0  0  0  0  0  0  0
   39.8666  -46.8167    7.9527 C   0  0  0  0  0  0  0  0  0  0  0  0
   40.0773  -45.8735    9.0322 C   0  0  0  0  0  0  0  0  0  0  0  0
   39.8775  -46.2878   10.4008 N   0  0  0  0  0  0  0  0  0  0  0  0
   40.4240  -44.7060    8.8921 O   0  0  0  0  0  0  0  0  0  0  0  0
   44.7267  -45.2732    6.5666 C   0  0  0  0  0  0  0  0  0  0  0  0
   45.6985  -45.5316    5.1802 S   0  0  0  0  0  0  0  0  0  0  0  0
   45.7418  -46.3263    2.0081 C   0  0  0  0  0  0  0  0  0  0  0  0
  1  2  1  0  0  0  0
  2  3  2  0  0  0  0
  3  4  1  0  0  0  0
  4  5  2  0  0  0  0
  5  6  1  0  0  0  0
  6  7  1  0  0  0  0
  6 23  2  0  0  0  0
  7  8  2  0  0  0  0
  8  9  1  0  0  0  0
  9 10  1  0  0  0  0
  9 21  2  0  0  0  0
 10 11  1  0  0  0  0
 11 12  1  0  0  0  0
 12 13  2  0  0  0  0
 13 14  1  0  0  0  0
 14 15  2  0  0  0  0
 15 16  1  0  0  0  0
 16 17  2  0  0  0  0
 17 18  1  0  0  0  0
 17 12  1  0  0  0  0
 18 19  1  0  0  0  0
 18 20  2  0  0  0  0
 21 22  1  0  0  0  0
 22  7  1  0  0  0  0
 23  2  1  0  0  0  0
M  END
>  <CHROM.1>
15.88530782,16.87184572,111.07884050,-124.94015463,-162.66674423,42.68788359
-46.23892120,5.17213425,0.77659361,-0.48425403,-1.92334287

>  <Name>
design_5

>  <RI>
0

>  <Rbt.Current_Directory>
/home/ziqiaoxu/icml18-jtnn/VAEdesign

>  <Rbt.Executable>
rbdock ($Id: //depot/dev/client3/rdock/2013.1/src/exe/rbdock.cxx#4 $)

>  <Rbt.Library>
libRbt.so (2013.1, Build901 2013/11/27)

>  <Rbt.Parameter_File>
/export/apps/rDock/src/rDock_2013.1_src//data/scripts/dock.prm

>  <Rbt.Receptor>
/home/ziqiaoxu/icml18-jtnn/VAEdesign/targets/RdRp-SARS-CoV-2/pocket_docking.prm

>  <SCORE>
-17.5296

>  <SCORE.INTER>
-22.5652

>  <SCORE.INTER.CONST>
1

>  <SCORE.INTER.POLAR>
-2.24735

>  <SCORE.INTER.REPUL>
0.0008012

>  <SCORE.INTER.ROT>
5

>  <SCORE.INTER.VDW>
-25.3282

>  <SCORE.INTER.norm>
-0.981096

>  <SCORE.INTRA>
5.0356

>  <SCORE.INTRA.DIHEDRAL>
10.1852

>  <SCORE.INTRA.DIHEDRAL.0>
5.0137

>  <SCORE.INTRA.POLAR>
0

>  <SCORE.INTRA.POLAR.0>
0

>  <SCORE.INTRA.REPUL>
0

>  <SCORE.INTRA.REPUL.0>
0

>  <SCORE.INTRA.VDW>
-0.0569841

>  <SCORE.INTRA.VDW.0>
-1.14847

>  <SCORE.INTRA.norm>
0.218939

>  <SCORE.RESTR>
0

>  <SCORE.RESTR.CAVITY>
0

>  <SCORE.RESTR.norm>
0

>  <SCORE.SYSTEM>
0

>  <SCORE.SYSTEM.CONST>
0

>  <SCORE.SYSTEM.DIHEDRAL>
0

>  <SCORE.SYSTEM.norm>
0

>  <SCORE.heavy>
23

>  <SCORE.norm>
-0.762157

$$$$
design_3
 OpenBabel05252019093D

 22 24  0  0  0  0  0  0  0  0999 V2000
   39.9377  -41.0481    7.2165 O   0  0  0  0  0  0  0  0  0  0  0  0
   39.8745  -40.2737    8.1941 C   0  0  0  0  0  0  0  0  0  0  0  0
   40.1365  -38.8997    7.9992 N   0  0  0  0  0  0  0  0  0  0  0  0
   40.4725  -38.3996    6.6884 C   0  0  0  0  0  0  0  0  0  0  0  0
   39.3659  -37.5431    6.1173 C   0  0  0  0  0  0  0  0  0  0  0  0
   39.7169  -37.3212    4.6647 C   0  0  0  0  0  0  0  0  0  0  0  0
   40.0239  -36.1334    4.0586 C   0  0  0  0  0  0  0  0  0  0  0  0
   40.3068  -36.1628    2.7485 C   0  0  0  0  0  0  0  0  0  0  0  0
   40.2641  -37.3846    2.1266 C   0  0  0  0  0  0  0  0  0  0  0  0
   39.8317  -38.4426    3.3910 S   0  0  0  0  0  0  0  0  0  0  0  0
   39.5448  -40.7803    9.4669 N   0  0  0  0  0  0  0  0  0  0  0  0
   39.2522  -42.1536    9.7856 C   0  0  0  0  0  0  0  0  0  0  0  0
   40.3688  -43.0445    9.3587 C   0  0  0  0  0  0  0  0  0  0  0  0
   39.8496  -44.3936    8.9105 C   0  0  0  0  0  0  0  0  0  0  0  0
   38.9200  -44.6574    8.0085 N   0  0  0  0  0  0  0  0  0  0  0  0
   38.5990  -45.8837    7.7503 C   0  0  0  0  0  0  0  0  0  0  0  0
   39.2528  -46.8732    8.4399 C   0  0  0  0  0  0  0  0  0  0  0  0
   40.3036  -45.9637    9.4309 S   0  0  0  0  0  0  0  0  0  0  0  0
   38.9131  -48.3190    8.1736 C   0  0  0  0  0  0  0  0  0  0  0  0
   38.9344  -48.5218    6.6740 C   0  0  0  0  0  0  0  0  0  0  0  0
   38.1834  -47.4892    5.9065 C   0  0  0  0  0  0  0  0  0  0  0  0
   37.5733  -46.4051    6.7641 C   0  0  0  0  0  0  0  0  0  0  0  0
  1  2  2  0  0  0  0
  2  3  1  0  0  0  0
  2 11  1  0  0  0  0
  3  4  1  0  0  0  0
  4  5  1  0  0  0  0
  5  6  1  0  0  0  0
  6  7  2  0  0  0  0
  7  8  1  0  0  0  0
  8  9  2  0  0  0  0
  9 10  1  0  0  0  0
 10  6  1  0  0  0  0
 11 12  1  0  0  0  0
 12 13  1  0  0  0  0
 13 14  1  0  0  0  0
 14 15  2  0  0  0  0
 15 16  1  0  0  0  0
 16 17  2  0  0  0  0
 17 18  1  0  0  0  0
 17 19  1  0  0  0  0
 18 14  1  0  0  0  0
 19 20  1  0  0  0  0
 20 21  1  0  0  0  0
 21 22  1  0  0  0  0
 22 16  1  0  0  0  0
M  END
>  <CHROM.1>
110.50680518,-168.95461927,-115.35908087,55.43107663,-146.41542533,53.37470955
39.58647455,-42.10737564,6.88260784,-1.12319532,1.36749364,2.31232646

>  <Name>
design_3

>  <RI>
0

>  <Rbt.Current_Directory>
/home/ziqiaoxu/icml18-jtnn/VAEdesign

>  <Rbt.Executable>
rbdock ($Id: //depot/dev/client3/rdock/2013.1/src/exe/rbdock.cxx#4 $)

>  <Rbt.Library>
libRbt.so (2013.1, Build901 2013/11/27)

>  <Rbt.Parameter_File>
/export/apps/rDock/src/rDock_2013.1_src//data/scripts/dock.prm

>  <Rbt.Receptor>
/home/ziqiaoxu/icml18-jtnn/VAEdesign/targets/RdRp-SARS-CoV-2/pocket_docking.prm

>  <SCORE>
-18.6706

>  <SCORE.INTER>
-19.6845

>  <SCORE.INTER.CONST>
1

>  <SCORE.INTER.POLAR>
-1.6936

>  <SCORE.INTER.REPUL>
0

>  <SCORE.INTER.ROT>
6

>  <SCORE.INTER.VDW>
-25.3263

>  <SCORE.INTER.norm>
-0.894751

>  <SCORE.INTRA>
1.01388

>  <SCORE.INTRA.DIHEDRAL>
2.41848

>  <SCORE.INTRA.DIHEDRAL.0>
5.09326

>  <SCORE.INTRA.POLAR>
0

>  <SCORE.INTRA.POLAR.0>
0

>  <SCORE.INTRA.REPUL>
0

>  <SCORE.INTRA.REPUL.0>
0

>  <SCORE.INTRA.VDW>
-0.195366

>  <SCORE.INTRA.VDW.0>
-1.04098

>  <SCORE.INTRA.norm>
0.0460853

>  <SCORE.RESTR>
0

>  <SCORE.RESTR.CAVITY>
0

>  <SCORE.RESTR.norm>
0

>  <SCORE.SYSTEM>
0

>  <SCORE.SYSTEM.CONST>
0

>  <SCORE.SYSTEM.DIHEDRAL>
0

>  <SCORE.SYSTEM.norm>
0

>  <SCORE.heavy>
22

>  <SCORE.norm>
-0.848666

$$$$
design_4
 OpenBabel05252019093D

 25 27  0  0  0  0  0  0  0  0999 V2000
   40.2191  -45.9955   10.8644 N   0  0  0  0  0  0  0  0  0  0  0  0
   40.8067  -45.7936    9.5946 C   0  0  0  0  0  0  0  0  0  0  0  0
   41.6829  -44.9253    9.4421 O   0  0  0  0  0  0  0  0  0  0  0  0
   40.3926  -46.6027    8.4438 C   0  0  0  0  0  0  0  0  0  0  0  0
   39.4831  -47.6215    8.5631 C   0  0  0  0  0  0  0  0  0  0  0  0
   39.1092  -48.3681    7.4698 C   0  0  0  0  0  0  0  0  0  0  0  0
   39.6464  -48.1099    6.2031 C   0  0  0  0  0  0  0  0  0  0  0  0
   40.5589  -47.0883    6.0774 C   0  0  0  0  0  0  0  0  0  0  0  0
   41.1698  -46.6767    4.8772 N   0  0  0  0  0  0  0  0  0  0  0  0
   42.3491  -45.9274    4.8336 C   0  0  0  0  0  0  0  0  0  0  0  0
   42.9555  -45.5717    5.8465 O   0  0  0  0  0  0  0  0  0  0  0  0
   42.8932  -45.5440    3.4979 C   0  0  0  0  0  0  0  0  0  0  0  0
   41.8686  -44.7638    2.7641 C   0  0  0  0  0  0  0  0  0  0  0  0
   42.4069  -43.5895    2.0438 C   0  0  0  0  0  0  0  0  0  0  0  0
   42.0183  -42.3042    2.2660 C   0  0  0  0  0  0  0  0  0  0  0  0
   42.5805  -41.2644    1.5400 C   0  0  0  0  0  0  0  0  0  0  0  0
   43.5416  -41.4806    0.5770 C   0  0  0  0  0  0  0  0  0  0  0  0
   44.1083  -40.3922   -0.1610 N   0  0  0  0  0  0  0  0  0  0  0  0
   43.7836  -38.9955   -0.1054 C   0  0  0  0  0  0  0  0  0  0  0  0
   45.1729  -38.3519   -0.1260 C   0  0  0  0  0  0  0  0  0  0  0  0
   45.8074  -39.1643   -1.2625 C   0  0  0  0  0  0  0  0  0  0  0  0
   45.1649  -40.5306   -1.1431 C   0  0  0  0  0  0  0  0  0  0  0  0
   43.9368  -42.7824    0.3503 C   0  0  0  0  0  0  0  0  0  0  0  0
   43.3712  -43.8230    1.0800 C   0  0  0  0  0  0  0  0  0  0  0  0
   40.9223  -46.3411    7.2172 C   0  0  0  0  0  0  0  0  0  0  0  0
  1  2  1  0  0  0  0
  2  3  2  0  0  0  0
  2  4  1  0  0  0  0
  4  5  2  0  0  0  0
  5  6  1  0  0  0  0
  6  7  2  0  0  0  0
  7  8  1  0  0  0  0
  8  9  1  0  0  0  0
  8 25  2  0  0  0  0
  9 10  1  0  0  0  0
 10 11  2  0  0  0  0
 10 12  1  0  0  0  0
 12 13  1  0  0  0  0
 13 14  1  0  0  0  0
 14 15  2  0  0  0  0
 15 16  1  0  0  0  0
 16 17  2  0  0  0  0
 17 18  1  0  0  0  0
 17 23  1  0  0  0  0
 18 19  1  0  0  0  0
 19 20  1  0  0  0  0
 20 21  1  0  0  0  0
 21 22  1  0  0  0  0
 22 18  1  0  0  0  0
 23 24  2  0  0  0  0
 24 14  1  0  0  0  0
 25  4  1  0  0  0  0
M  END
>  <CHROM.1>
-3.47083624,-160.59718742,58.11080673,137.80892349,-120.58071458,-3.00597666
42.26153391,-44.05480085,4.06435709,-2.64458548,-1.16326709,-1.95414365

>  <Name>
design_4

>  <RI>
0

>  <Rbt.Current_Directory>
/home/ziqiaoxu/icml18-jtnn/VAEdesign

>  <Rbt.Executable>
rbdock ($Id: //depot/dev/client3/rdock/2013.1/src/exe/rbdock.cxx#4 $)

>  <Rbt.Library>
libRbt.so (2013.1, Build901 2013/11/27)

>  <Rbt.Parameter_File>
/export/apps/rDock/src/rDock_2013.1_src//data/scripts/dock.prm

>  <Rbt.Receptor>
/home/ziqiaoxu/icml18-jtnn/VAEdesign/targets/RdRp-SARS-CoV-2/pocket_docking.prm

>  <SCORE>
-19.2841

>  <SCORE.INTER>
-21.2845

>  <SCORE.INTER.CONST>
1

>  <SCORE.INTER.POLAR>
-2.2432

>  <SCORE.INTER.REPUL>
0.0525874

>  <SCORE.INTER.ROT>
6

>  <SCORE.INTER.VDW>
-25.3206

>  <SCORE.INTER.norm>
-0.851382

>  <SCORE.INTRA>
2.00045

>  <SCORE.INTRA.DIHEDRAL>
3.86835

>  <SCORE.INTRA.DIHEDRAL.0>
3.9935

>  <SCORE.INTRA.POLAR>
0

>  <SCORE.INTRA.POLAR.0>
0

>  <SCORE.INTRA.REPUL>
0

>  <SCORE.INTRA.REPUL.0>
0

>  <SCORE.INTRA.VDW>
0.0662755

>  <SCORE.INTRA.VDW.0>
1.75498

>  <SCORE.INTRA.norm>
0.080018

>  <SCORE.RESTR>
0

>  <SCORE.RESTR.CAVITY>
0

>  <SCORE.RESTR.norm>
0

>  <SCORE.SYSTEM>
0

>  <SCORE.SYSTEM.CONST>
0

>  <SCORE.SYSTEM.DIHEDRAL>
0

>  <SCORE.SYSTEM.norm>
0

>  <SCORE.heavy>
25

>  <SCORE.norm>
-0.771364

$$$$
design_13
 OpenBabel05252019093D

 25 26  0  0  0  0  0  0  0  0999 V2000
   41.0113  -35.6155    3.3883 C   0  0  0  0  0  0  0  0  0  0  0  0
   40.0302  -36.7095    3.5803 C   0  0  0  0  0  0  0  0  0  0  0  0
   39.2865  -37.0133    2.6142 O   0  0  0  0  0  0  0  0  0  0  0  0
   39.9341  -37.4098    4.8546 C   0  0  0  0  0  0  0  0  0  0  0  0
   40.2265  -36.7826    6.0407 C   0  0  0  0  0  0  0  0  0  0  0  0
   40.1377  -37.4480    7.2747 C   0  0  0  0  0  0  0  0  0  0  0  0
   39.7565  -38.7544    7.3710 C   0  0  0  0  0  0  0  0  0  0  0  0
   39.6240  -39.5073    8.5586 N   0  0  0  0  0  0  0  0  0  0  0  0
   39.6362  -40.9032    8.6077 C   0  0  0  0  0  0  0  0  0  0  0  0
   39.7682  -41.7026    7.6525 O   0  0  0  0  0  0  0  0  0  0  0  0
   39.4768  -41.5017    9.9227 N   0  0  0  0  0  0  0  0  0  0  0  0
   39.4836  -42.9316   10.0176 C   0  0  0  0  0  0  0  0  0  0  0  0
   40.5925  -43.3922   10.8998 C   0  0  0  0  0  0  0  0  0  0  0  0
   40.7299  -44.8931   10.8279 C   0  0  0  0  0  0  0  0  0  0  0  0
   41.2986  -45.3074    9.4955 C   0  0  0  0  0  0  0  0  0  0  0  0
   42.3883  -44.8133    9.1102 O   0  0  0  0  0  0  0  0  0  0  0  0
   40.5753  -46.2492    8.7181 N   0  0  0  0  0  0  0  0  0  0  0  0
   39.3220  -46.8127    9.1700 C   0  0  0  0  0  0  0  0  0  0  0  0
   38.2341  -46.3950    8.2004 C   0  0  0  0  0  0  0  0  0  0  0  0
   38.7510  -46.2963    6.7818 C   0  0  0  0  0  0  0  0  0  0  0  0
   39.9143  -47.2667    6.6660 C   0  0  1  0  0  0  0  0  0  0  0  0
   40.2768  -47.5204    5.2208 C   0  0  0  0  0  0  0  0  0  0  0  0
   41.0823  -46.6765    7.4315 C   0  0  0  0  0  0  0  0  0  0  0  0
   39.4597  -39.3836    6.1402 C   0  0  0  0  0  0  0  0  0  0  0  0
   39.5492  -38.7268    4.9409 C   0  0  0  0  0  0  0  0  0  0  0  0
  1  2  1  0  0  0  0
  2  3  2  0  0  0  0
  2  4  1  0  0  0  0
  4  5  2  0  0  0  0
  5  6  1  0  0  0  0
  6  7  2  0  0  0  0
  7  8  1  0  0  0  0
  7 24  1  0  0  0  0
  8  9  1  0  0  0  0
  9 10  2  0  0  0  0
  9 11  1  0  0  0  0
 11 12  1  0  0  0  0
 12 13  1  0  0  0  0
 13 14  1  0  0  0  0
 14 15  1  0  0  0  0
 15 16  2  0  0  0  0
 15 17  1  0  0  0  0
 17 18  1  0  0  0  0
 18 19  1  0  0  0  0
 19 20  1  0  0  0  0
 20 21  1  0  0  0  0
 21 22  1  6  0  0  0
 21 23  1  0  0  0  0
 23 17  1  0  0  0  0
 24 25  2  0  0  0  0
 25  4  1  0  0  0  0
M  END
>  <CHROM.1>
30.23695116,-159.48925671,120.24209463,-171.25646752,71.47143895,54.94233660
40.02913108,-42.06594609,7.35537493,1.89518636,-1.50231434,-0.06000451

>  <Name>
design_13

>  <RI>
0

>  <Rbt.Current_Directory>
/home/ziqiaoxu/icml18-jtnn/VAEdesign

>  <Rbt.Executable>
rbdock ($Id: //depot/dev/client3/rdock/2013.1/src/exe/rbdock.cxx#4 $)

>  <Rbt.Library>
libRbt.so (2013.1, Build901 2013/11/27)

>  <Rbt.Parameter_File>
/export/apps/rDock/src/rDock_2013.1_src//data/scripts/dock.prm

>  <Rbt.Receptor>
/home/ziqiaoxu/icml18-jtnn/VAEdesign/targets/RdRp-SARS-CoV-2/pocket_docking.prm

>  <SCORE>
-18.4282

>  <SCORE.INTER>
-20.1584

>  <SCORE.INTER.CONST>
1

>  <SCORE.INTER.POLAR>
-1.83518

>  <SCORE.INTER.REPUL>
0

>  <SCORE.INTER.ROT>
6

>  <SCORE.INTER.VDW>
-25.3188

>  <SCORE.INTER.norm>
-0.806338

>  <SCORE.INTRA>
1.21123

>  <SCORE.INTRA.DIHEDRAL>
6.80208

>  <SCORE.INTRA.DIHEDRAL.0>
2.7514

>  <SCORE.INTRA.POLAR>
0

>  <SCORE.INTRA.POLAR.0>
0

>  <SCORE.INTRA.REPUL>
0

>  <SCORE.INTRA.REPUL.0>
0

>  <SCORE.INTRA.VDW>
-2.18981

>  <SCORE.INTRA.VDW.0>
1.91662

>  <SCORE.INTRA.norm>
0.0484494

>  <SCORE.RESTR>
0.519042

>  <SCORE.RESTR.CAVITY>
0.519042

>  <SCORE.RESTR.norm>
0.0207617

>  <SCORE.SYSTEM>
0

>  <SCORE.SYSTEM.CONST>
0

>  <SCORE.SYSTEM.DIHEDRAL>
0

>  <SCORE.SYSTEM.norm>
0

>  <SCORE.heavy>
25

>  <SCORE.norm>
-0.737126

$$$$
design_8
 OpenBabel05252019093D

 22 23  0  0  0  0  0  0  0  0999 V2000
   42.6436  -40.2020    1.0989 C   0  0  0  0  0  0  0  0  0  0  0  0
   42.0937  -41.4001    1.2711 C   0  0  0  0  0  0  0  0  0  0  0  0
   42.6893  -42.5540    0.5443 C   0  0  0  0  0  0  0  0  0  0  0  0
   43.0491  -43.6861    1.4865 C   0  0  1  0  0  0  0  0  0  0  0  0
   42.0107  -44.2586    2.2567 N   0  0  0  0  0  0  0  0  0  0  0  0
   42.0020  -44.8691    3.5321 C   0  0  0  0  0  0  0  0  0  0  0  0
   43.0191  -44.9545    4.2358 O   0  0  0  0  0  0  0  0  0  0  0  0
   40.6813  -45.4196    3.9852 C   0  0  0  0  0  0  0  0  0  0  0  0
   40.7287  -46.9571    4.8651 S   0  0  0  0  0  0  0  0  0  0  0  0
   40.9400  -46.5980    6.6229 C   0  0  0  0  0  0  0  0  0  0  0  0
   42.0147  -46.0933    7.2047 N   0  0  0  0  0  0  0  0  0  0  0  0
   41.7753  -45.9935    8.5202 N   0  0  0  0  0  0  0  0  0  0  0  0
   40.5394  -46.4298    8.8061 C   0  0  0  0  0  0  0  0  0  0  0  0
   39.9173  -46.4999   10.0733 N   0  0  0  0  0  0  0  0  0  0  0  0
   40.0343  -46.8052    7.6028 N   0  0  0  0  0  0  0  0  0  0  0  0
   38.7227  -47.3303    7.4060 C   0  0  0  0  0  0  0  0  0  0  0  0
   43.8272  -44.6958    0.7740 C   0  0  0  0  0  0  0  0  0  0  0  0
   43.1939  -45.8146    0.2593 C   0  0  0  0  0  0  0  0  0  0  0  0
   43.8609  -46.8001   -0.4650 C   0  0  0  0  0  0  0  0  0  0  0  0
   45.2215  -46.6233   -0.6609 C   0  0  0  0  0  0  0  0  0  0  0  0
   45.8341  -45.5112   -0.1430 C   0  0  0  0  0  0  0  0  0  0  0  0
   45.1981  -44.5410    0.5627 C   0  0  0  0  0  0  0  0  0  0  0  0
  1  2  2  0  0  0  0
  2  3  1  0  0  0  0
  4  3  1  6  0  0  0
  4  5  1  0  0  0  0
  4 17  1  0  0  0  0
  5  6  1  0  0  0  0
  6  7  2  0  0  0  0
  6  8  1  0  0  0  0
  8  9  1  0  0  0  0
  9 10  1  0  0  0  0
 10 11  2  0  0  0  0
 11 12  1  0  0  0  0
 12 13  2  0  0  0  0
 13 14  1  0  0  0  0
 13 15  1  0  0  0  0
 15 16  1  0  0  0  0
 15 10  1  0  0  0  0
 17 18  2  0  0  0  0
 18 19  1  0  0  0  0
 19 20  2  0  0  0  0
 20 21  1  0  0  0  0
 21 22  2  0  0  0  0
 22 17  1  0  0  0  0
M  END
>  <CHROM.1>
125.92536431,59.35513683,-150.06069095,141.22141677,88.54597923,-68.46798932
-96.69701895,42.12977092,-45.28934459,3.79233502,0.64102263,1.04475479,-0.40443674

>  <Name>
design_8

>  <RI>
0

>  <Rbt.Current_Directory>
/home/ziqiaoxu/icml18-jtnn/VAEdesign

>  <Rbt.Executable>
rbdock ($Id: //depot/dev/client3/rdock/2013.1/src/exe/rbdock.cxx#4 $)

>  <Rbt.Library>
libRbt.so (2013.1, Build901 2013/11/27)

>  <Rbt.Parameter_File>
/export/apps/rDock/src/rDock_2013.1_src//data/scripts/dock.prm

>  <Rbt.Receptor>
/home/ziqiaoxu/icml18-jtnn/VAEdesign/targets/RdRp-SARS-CoV-2/pocket_docking.prm

>  <SCORE>
-24.1669

>  <SCORE.INTER>
-19.638

>  <SCORE.INTER.CONST>
1

>  <SCORE.INTER.POLAR>
-1.97667

>  <SCORE.INTER.REPUL>
0

>  <SCORE.INTER.ROT>
7

>  <SCORE.INTER.VDW>
-25.3173

>  <SCORE.INTER.norm>
-0.892636

>  <SCORE.INTRA>
-4.52887

>  <SCORE.INTRA.DIHEDRAL>
-1.83498

>  <SCORE.INTRA.DIHEDRAL.0>
9.98771

>  <SCORE.INTRA.POLAR>
0

>  <SCORE.INTRA.POLAR.0>
0

>  <SCORE.INTRA.REPUL>
0

>  <SCORE.INTRA.REPUL.0>
0

>  <SCORE.INTRA.VDW>
-3.61138

>  <SCORE.INTRA.VDW.0>
1.17791

>  <SCORE.INTRA.norm>
-0.205858

>  <SCORE.RESTR>
0

>  <SCORE.RESTR.CAVITY>
0

>  <SCORE.RESTR.norm>
0

>  <SCORE.SYSTEM>
0

>  <SCORE.SYSTEM.CONST>
0

>  <SCORE.SYSTEM.DIHEDRAL>
0

>  <SCORE.SYSTEM.norm>
0

>  <SCORE.heavy>
22

>  <SCORE.norm>
-1.09849

$$$$
design_16
 OpenBabel05252019093D

 23 24  0  0  0  0  0  0  0  0999 V2000
   38.8646  -46.6773    9.0620 C   0  0  0  0  0  0  0  0  0  0  0  0
   39.9846  -45.5451    9.8391 S   0  0  0  0  0  0  0  0  0  0  0  0
   40.2691  -46.1039   11.2267 O   0  0  0  0  0  0  0  0  0  0  0  0
   39.3384  -44.2043   10.0529 O   0  0  0  0  0  0  0  0  0  0  0  0
   41.4603  -45.3433    8.9371 C   0  0  0  0  0  0  0  0  0  0  0  0
   41.7601  -46.0478    7.7952 C   0  0  0  0  0  0  0  0  0  0  0  0
   42.9754  -45.8326    7.1287 C   0  0  0  0  0  0  0  0  0  0  0  0
   43.9130  -44.9317    7.5610 C   0  0  0  0  0  0  0  0  0  0  0  0
   45.2126  -44.6914    6.8882 C   0  0  0  0  0  0  0  0  0  0  0  0
   45.1442  -44.8489    5.4026 C   0  0  0  0  0  0  0  0  0  0  0  0
   44.3925  -44.0401    4.8207 O   0  0  0  0  0  0  0  0  0  0  0  0
   45.8964  -45.8573    4.7724 N   0  0  0  0  0  0  0  0  0  0  0  0
   45.9530  -46.1419    3.4024 C   0  0  0  0  0  0  0  0  0  0  0  0
   47.0484  -46.6666    2.7936 C   0  0  0  0  0  0  0  0  0  0  0  0
   47.0713  -46.9171    1.4191 C   0  0  0  0  0  0  0  0  0  0  0  0
   45.9896  -46.6446    0.6297 C   0  0  0  0  0  0  0  0  0  0  0  0
   44.8523  -46.1081    1.2168 C   0  0  0  0  0  0  0  0  0  0  0  0
   43.6714  -45.7976    0.4439 C   0  0  0  0  0  0  0  0  0  0  0  0
   43.4935  -46.3562   -0.8372 N   0  0  0  0  0  0  0  0  0  0  0  0
   42.8054  -45.0332    0.9135 O   0  0  0  0  0  0  0  0  0  0  0  0
   44.8592  -45.8723    2.5692 C   0  0  0  0  0  0  0  0  0  0  0  0
   43.5886  -44.2235    8.7269 C   0  0  0  0  0  0  0  0  0  0  0  0
   42.3951  -44.4338    9.3836 C   0  0  0  0  0  0  0  0  0  0  0  0
  1  2  1  0  0  0  0
  2  3  2  0  0  0  0
  2  4  2  0  0  0  0
  2  5  1  0  0  0  0
  5  6  2  0  0  0  0
  6  7  1  0  0  0  0
  7  8  2  0  0  0  0
  8  9  1  0  0  0  0
  8 22  1  0  0  0  0
  9 10  1  0  0  0  0
 10 11  2  0  0  0  0
 10 12  1  0  0  0  0
 12 13  1  0  0  0  0
 13 14  2  0  0  0  0
 14 15  1  0  0  0  0
 15 16  2  0  0  0  0
 16 17  1  0  0  0  0
 17 18  1  0  0  0  0
 17 21  2  0  0  0  0
 18 19  1  0  0  0  0
 18 20  2  0  0  0  0
 21 13  1  0  0  0  0
 22 23  2  0  0  0  0
 23  5  1  0  0  0  0
M  END
>  <CHROM.1>
-3.92538860,33.23731899,63.05631598,149.98786059,17.53622584,43.23214836
-45.56756561,5.68274127,2.07660492,0.08235239,1.43957499

>  <Name>
design_16

>  <RI>
0

>  <Rbt.Current_Directory>
/home/ziqiaoxu/icml18-jtnn/VAEdesign

>  <Rbt.Executable>
rbdock ($Id: //depot/dev/client3/rdock/2013.1/src/exe/rbdock.cxx#4 $)

>  <Rbt.Library>
libRbt.so (2013.1, Build901 2013/11/27)

>  <Rbt.Parameter_File>
/export/apps/rDock/src/rDock_2013.1_src//data/scripts/dock.prm

>  <Rbt.Receptor>
/home/ziqiaoxu/icml18-jtnn/VAEdesign/targets/RdRp-SARS-CoV-2/pocket_docking.prm

>  <SCORE>
-20.4043

>  <SCORE.INTER>
-20.9627

>  <SCORE.INTER.CONST>
1

>  <SCORE.INTER.POLAR>
-1.7886

>  <SCORE.INTER.REPUL>
0.00712471

>  <SCORE.INTER.ROT>
5

>  <SCORE.INTER.VDW>
-25.3171

>  <SCORE.INTER.norm>
-0.911422

>  <SCORE.INTRA>
0.558387

>  <SCORE.INTRA.DIHEDRAL>
1.49549

>  <SCORE.INTRA.DIHEDRAL.0>
6.03276

>  <SCORE.INTRA.POLAR>
0

>  <SCORE.INTRA.POLAR.0>
0

>  <SCORE.INTRA.REPUL>
0

>  <SCORE.INTRA.REPUL.0>
0

>  <SCORE.INTRA.VDW>
-0.189358

>  <SCORE.INTRA.VDW.0>
-1.16435

>  <SCORE.INTRA.norm>
0.0242777

>  <SCORE.RESTR>
0

>  <SCORE.RESTR.CAVITY>
0

>  <SCORE.RESTR.norm>
0

>  <SCORE.SYSTEM>
0

>  <SCORE.SYSTEM.CONST>
0

>  <SCORE.SYSTEM.DIHEDRAL>
0

>  <SCORE.SYSTEM.norm>
0

>  <SCORE.heavy>
23

>  <SCORE.norm>
-0.887145

$$$$
design_7
 OpenBabel05252019093D

 24 26  0  0  0  0  0  0  0  0999 V2000
   39.4259  -48.5466    6.5262 C   0  0  0  0  0  0  0  0  0  0  0  0
   39.9543  -47.5398    7.4980 C   0  0  0  0  0  0  0  0  0  0  0  0
   39.4028  -47.3837    8.7472 C   0  0  0  0  0  0  0  0  0  0  0  0
   39.9466  -46.4158    9.6012 C   0  0  0  0  0  0  0  0  0  0  0  0
   41.0044  -45.6112    9.2576 C   0  0  0  0  0  0  0  0  0  0  0  0
   41.4928  -44.5641   10.1650 C   0  0  0  0  0  0  0  0  0  0  0  0
   40.5665  -43.4759   10.3700 N   0  0  0  0  0  0  0  0  0  0  0  0
   40.2872  -42.5377    9.3062 C   0  0  0  0  0  0  0  0  0  0  0  0
   40.8766  -42.7285    8.2186 O   0  0  0  0  0  0  0  0  0  0  0  0
   39.3457  -41.4292    9.5346 C   0  0  0  0  0  0  0  0  0  0  0  0
   39.8668  -40.2085    8.8845 C   0  0  0  0  0  0  0  0  0  0  0  0
   40.8743  -39.4635    9.3519 N   0  0  0  0  0  0  0  0  0  0  0  0
   41.1211  -38.4479    8.6081 O   0  0  0  0  0  0  0  0  0  0  0  0
   40.2575  -38.4846    7.5882 C   0  0  0  0  0  0  0  0  0  0  0  0
   40.0793  -37.6455    6.5075 C   0  0  0  0  0  0  0  0  0  0  0  0
   39.1016  -37.9281    5.6004 C   0  0  0  0  0  0  0  0  0  0  0  0
   38.2828  -39.0234    5.7214 C   0  0  0  0  0  0  0  0  0  0  0  0
   38.4491  -39.8730    6.7989 C   0  0  0  0  0  0  0  0  0  0  0  0
   39.4453  -39.5949    7.7350 C   0  0  0  0  0  0  0  0  0  0  0  0
   41.5612  -45.7774    7.9820 C   0  0  0  0  0  0  0  0  0  0  0  0
   42.6673  -44.9689    7.6080 N   0  0  0  0  0  0  0  0  0  0  0  0
   43.8497  -44.7549    8.4244 C   0  0  0  0  0  0  0  0  0  0  0  0
   42.6319  -44.2872    6.3220 C   0  0  0  0  0  0  0  0  0  0  0  0
   41.0134  -46.7342    7.1538 C   0  0  0  0  0  0  0  0  0  0  0  0
  1  2  1  0  0  0  0
  2  3  2  0  0  0  0
  3  4  1  0  0  0  0
  4  5  2  0  0  0  0
  5  6  1  0  0  0  0
  5 20  1  0  0  0  0
  6  7  1  0  0  0  0
  7  8  1  0  0  0  0
  8  9  2  0  0  0  0
  8 10  1  0  0  0  0
 10 11  1  0  0  0  0
 11 12  2  0  0  0  0
 12 13  1  0  0  0  0
 13 14  1  0  0  0  0
 14 15  2  0  0  0  0
 15 16  1  0  0  0  0
 16 17  2  0  0  0  0
 17 18  1  0  0  0  0
 18 19  2  0  0  0  0
 19 11  1  0  0  0  0
 19 14  1  0  0  0  0
 20 21  1  0  0  0  0
 20 24  2  0  0  0  0
 21 22  1  0  0  0  0
 21 23  1  0  0  0  0
 24  2  1  0  0  0  0
M  END
>  <CHROM.1>
-67.19255779,-70.21858161,140.07069995,-75.35894710,48.21452451,40.52634676
-42.82647686,8.07639101,1.33181574,0.94058391,-3.03985767

>  <Name>
design_7

>  <RI>
0

>  <Rbt.Current_Directory>
/home/ziqiaoxu/icml18-jtnn/VAEdesign

>  <Rbt.Executable>
rbdock ($Id: //depot/dev/client3/rdock/2013.1/src/exe/rbdock.cxx#4 $)

>  <Rbt.Library>
libRbt.so (2013.1, Build901 2013/11/27)

>  <Rbt.Parameter_File>
/export/apps/rDock/src/rDock_2013.1_src//data/scripts/dock.prm

>  <Rbt.Receptor>
/home/ziqiaoxu/icml18-jtnn/VAEdesign/targets/RdRp-SARS-CoV-2/pocket_docking.prm

>  <SCORE>
-18.0018

>  <SCORE.INTER>
-17.8788

>  <SCORE.INTER.CONST>
1

>  <SCORE.INTER.POLAR>
-0.872429

>  <SCORE.INTER.REPUL>
0

>  <SCORE.INTER.ROT>
5

>  <SCORE.INTER.VDW>
-25.3125

>  <SCORE.INTER.norm>
-0.74495

>  <SCORE.INTRA>
-0.131053

>  <SCORE.INTRA.DIHEDRAL>
-3.94834

>  <SCORE.INTRA.DIHEDRAL.0>
15.8627

>  <SCORE.INTRA.POLAR>
0

>  <SCORE.INTRA.POLAR.0>
0

>  <SCORE.INTRA.REPUL>
0

>  <SCORE.INTRA.REPUL.0>
0

>  <SCORE.INTRA.VDW>
1.84312

>  <SCORE.INTRA.VDW.0>
-1.67954

>  <SCORE.INTRA.norm>
-0.00546054

>  <SCORE.RESTR>
0.00808942

>  <SCORE.RESTR.CAVITY>
0.00808942

>  <SCORE.RESTR.norm>
0.000337059

>  <SCORE.SYSTEM>
0

>  <SCORE.SYSTEM.CONST>
0

>  <SCORE.SYSTEM.DIHEDRAL>
0

>  <SCORE.SYSTEM.norm>
0

>  <SCORE.heavy>
24

>  <SCORE.norm>
-0.750073

$$$$
design_11
 OpenBabel05252019093D

 25 26  0  0  0  0  0  0  0  0999 V2000
   40.2151  -37.0373    3.2593 C   0  0  0  0  0  0  0  0  0  0  0  0
   40.0543  -37.6451    4.6172 C   0  0  0  0  0  0  0  0  0  0  0  0
   39.8093  -38.9881    4.7465 C   0  0  0  0  0  0  0  0  0  0  0  0
   39.6626  -39.5394    5.9977 C   0  0  0  0  0  0  0  0  0  0  0  0
   39.7563  -38.7635    7.1638 C   0  0  0  0  0  0  0  0  0  0  0  0
   39.6171  -39.3929    8.3817 N   0  0  0  0  0  0  0  0  0  0  0  0
   39.5157  -40.7845    8.5841 C   0  0  0  0  0  0  0  0  0  0  0  0
   39.5457  -41.6652    7.6962 O   0  0  0  0  0  0  0  0  0  0  0  0
   39.3638  -41.2667    9.9234 N   0  0  0  0  0  0  0  0  0  0  0  0
   39.2551  -42.6705   10.1781 C   0  0  0  0  0  0  0  0  0  0  0  0
   40.5588  -43.3916   10.3608 C   0  0  0  0  0  0  0  0  0  0  0  0
   40.5266  -44.6396    9.5458 C   0  0  0  0  0  0  0  0  0  0  0  0
   41.3641  -44.8141    8.6236 O   0  0  0  0  0  0  0  0  0  0  0  0
   39.5674  -45.6589    9.7752 N   0  0  0  0  0  0  0  0  0  0  0  0
   39.5257  -46.8638    9.0051 C   0  0  0  0  0  0  0  0  0  0  0  0
   39.3052  -46.6439    7.5561 C   0  0  0  0  0  0  0  0  0  0  0  0
   38.1567  -45.9996    7.1519 C   0  0  0  0  0  0  0  0  0  0  0  0
   37.9135  -45.7657    5.8006 C   0  0  0  0  0  0  0  0  0  0  0  0
   38.8212  -46.1781    4.8563 C   0  0  0  0  0  0  0  0  0  0  0  0
   38.6148  -45.9582    3.4313 C   0  0  0  0  0  0  0  0  0  0  0  0
   38.4716  -45.7881    2.3018 N   0  0  0  0  0  0  0  0  0  0  0  0
   39.9637  -46.8226    5.3001 C   0  0  0  0  0  0  0  0  0  0  0  0
   40.2333  -47.0684    6.6246 C   0  0  0  0  0  0  0  0  0  0  0  0
   40.0002  -37.4317    7.0166 C   0  0  0  0  0  0  0  0  0  0  0  0
   40.1470  -36.8828    5.7492 C   0  0  0  0  0  0  0  0  0  0  0  0
  1  2  1  0  0  0  0
  2  3  2  0  0  0  0
  3  4  1  0  0  0  0
  4  5  2  0  0  0  0
  5  6  1  0  0  0  0
  5 24  1  0  0  0  0
  6  7  1  0  0  0  0
  7  8  2  0  0  0  0
  7  9  1  0  0  0  0
  9 10  1  0  0  0  0
 10 11  1  0  0  0  0
 11 12  1  0  0  0  0
 12 13  2  0  0  0  0
 12 14  1  0  0  0  0
 14 15  1  0  0  0  0
 15 16  1  0  0  0  0
 16 17  2  0  0  0  0
 17 18  1  0  0  0  0
 18 19  2  0  0  0  0
 19 20  1  0  0  0  0
 19 22  1  0  0  0  0
 20 21  3  0  0  0  0
 22 23  2  0  0  0  0
 23 16  1  0  0  0  0
 24 25  2  0  0  0  0
 25  2  1  0  0  0  0
M  END
>  <CHROM.1>
6.61776131,87.63862919,-133.49037457,118.91834219,-60.24477570,-59.53418100
39.61377366,-42.68525695,7.01647269,1.11197834,-1.42435423,-0.58618543

>  <Name>
design_11

>  <RI>
0

>  <Rbt.Current_Directory>
/home/ziqiaoxu/icml18-jtnn/VAEdesign

>  <Rbt.Executable>
rbdock ($Id: //depot/dev/client3/rdock/2013.1/src/exe/rbdock.cxx#4 $)

>  <Rbt.Library>
libRbt.so (2013.1, Build901 2013/11/27)

>  <Rbt.Parameter_File>
/export/apps/rDock/src/rDock_2013.1_src//data/scripts/dock.prm

>  <Rbt.Receptor>
/home/ziqiaoxu/icml18-jtnn/VAEdesign/targets/RdRp-SARS-CoV-2/pocket_docking.prm

>  <SCORE>
-21.994

>  <SCORE.INTER>
-22.7405

>  <SCORE.INTER.CONST>
1

>  <SCORE.INTER.POLAR>
-2.59654

>  <SCORE.INTER.REPUL>
0

>  <SCORE.INTER.ROT>
6

>  <SCORE.INTER.VDW>
-25.3123

>  <SCORE.INTER.norm>
-0.909621

>  <SCORE.INTRA>
0.31042

>  <SCORE.INTRA.DIHEDRAL>
4.13659

>  <SCORE.INTRA.DIHEDRAL.0>
5.14647

>  <SCORE.INTRA.POLAR>
0

>  <SCORE.INTRA.POLAR.0>
0

>  <SCORE.INTRA.REPUL>
0

>  <SCORE.INTRA.REPUL.0>
0

>  <SCORE.INTRA.VDW>
-1.75787

>  <SCORE.INTRA.VDW.0>
0.182487

>  <SCORE.INTRA.norm>
0.0124168

>  <SCORE.RESTR>
0.436062

>  <SCORE.RESTR.CAVITY>
0.436062

>  <SCORE.RESTR.norm>
0.0174425

>  <SCORE.SYSTEM>
0

>  <SCORE.SYSTEM.CONST>
0

>  <SCORE.SYSTEM.DIHEDRAL>
0

>  <SCORE.SYSTEM.norm>
0

>  <SCORE.heavy>
25

>  <SCORE.norm>
-0.879761

$$$$
design_11
 OpenBabel05252019093D

 28 31  0  0  0  0  0  0  0  0999 V2000
   40.4537  -45.5405   10.7321 C   0  0  0  0  0  0  0  0  0  0  0  0
   39.9230  -46.1647    9.6700 N   0  0  0  0  0  0  0  0  0  0  0  0
   39.3717  -46.8169    8.5680 C   0  0  0  0  0  0  0  0  0  0  0  0
   39.0942  -48.0397    8.4633 O   0  0  0  0  0  0  0  0  0  0  0  0
   39.0376  -46.0278    7.3148 C   0  0  2  0  0  0  0  0  0  0  0  0
   37.5476  -46.0256    7.2112 C   0  0  0  0  0  0  0  0  0  0  0  0
   37.0549  -45.6030    5.8472 C   0  0  0  0  0  0  0  0  0  0  0  0
   37.7363  -46.3915    4.7604 C   0  0  0  0  0  0  0  0  0  0  0  0
   39.1884  -46.2326    4.8943 N   0  0  0  0  0  0  0  0  0  0  0  0
   39.8922  -45.6700    3.8246 C   0  0  0  0  0  0  0  0  0  0  0  0
   39.2679  -45.2772    2.8002 O   0  0  0  0  0  0  0  0  0  0  0  0
   41.3270  -45.4987    3.7990 N   0  0  0  0  0  0  0  0  0  0  0  0
   41.9752  -44.9157    2.6723 C   0  0  0  0  0  0  0  0  0  0  0  0
   43.3506  -45.3492    2.3604 C   0  0  0  0  0  0  0  0  0  0  0  0
   44.3791  -45.2313    3.3201 C   0  0  0  0  0  0  0  0  0  0  0  0
   44.2285  -44.8084    4.7129 C   0  0  0  0  0  0  0  0  0  0  0  0
   43.3281  -43.8989    5.1833 C   0  0  0  0  0  0  0  0  0  0  0  0
   43.2289  -43.5697    6.5312 C   0  0  0  0  0  0  0  0  0  0  0  0
   44.0767  -44.1862    7.4388 C   0  0  0  0  0  0  0  0  0  0  0  0
   44.9983  -45.1106    6.9951 C   0  0  0  0  0  0  0  0  0  0  0  0
   45.0736  -45.4199    5.6382 C   0  0  0  0  0  0  0  0  0  0  0  0
   45.4891  -45.6417    2.7094 N   0  0  0  0  0  0  0  0  0  0  0  0
   45.1734  -45.9919    1.4506 C   0  0  0  0  0  0  0  0  0  0  0  0
   45.8172  -46.5726   -0.0212 S   0  0  0  0  0  0  0  0  0  0  0  0
   44.3834  -46.5844   -0.9352 C   0  0  0  0  0  0  0  0  0  0  0  0
   43.4637  -46.1268   -0.0236 C   0  0  0  0  0  0  0  0  0  0  0  0
   43.8774  -45.8299    1.1874 N   0  0  0  0  0  0  0  0  0  0  0  0
   39.7561  -46.6671    6.1633 C   0  0  0  0  0  0  0  0  0  0  0  0
  1  2  1  0  0  0  0
  2  3  1  0  0  0  0
  3  4  2  0  0  0  0
  5  3  1  1  0  0  0
  5  6  1  0  0  0  0
  6  7  1  0  0  0  0
  7  8  1  0  0  0  0
  8  9  1  0  0  0  0
  9 10  1  0  0  0  0
  9 28  1  0  0  0  0
 10 11  2  0  0  0  0
 10 12  1  0  0  0  0
 12 13  1  0  0  0  0
 13 14  1  0  0  0  0
 14 15  2  0  0  0  0
 15 16  1  0  0  0  0
 15 22  1  0  0  0  0
 16 17  2  0  0  0  0
 17 18  1  0  0  0  0
 18 19  2  0  0  0  0
 19 20  1  0  0  0  0
 20 21  2  0  0  0  0
 21 16  1  0  0  0  0
 22 23  2  0  0  0  0
 23 24  1  0  0  0  0
 24 25  1  0  0  0  0
 25 26  2  0  0  0  0
 26 27  1  0  0  0  0
 27 14  1  0  0  0  0
 27 23  1  0  0  0  0
 28  5  1  0  0  0  0
M  END
>  <CHROM.1>
-111.88893584,-149.55038257,-57.02601012,-33.32097914,41.96005205,-45.75230090
4.60221026,-2.27654731,-0.17247174,-1.68007402

>  <Name>
design_11

>  <RI>
0

>  <Rbt.Current_Directory>
/home/ziqiaoxu/icml18-jtnn/VAEdesign

>  <Rbt.Executable>
rbdock ($Id: //depot/dev/client3/rdock/2013.1/src/exe/rbdock.cxx#4 $)

>  <Rbt.Library>
libRbt.so (2013.1, Build901 2013/11/27)

>  <Rbt.Parameter_File>
/export/apps/rDock/src/rDock_2013.1_src//data/scripts/dock.prm

>  <Rbt.Receptor>
/home/ziqiaoxu/icml18-jtnn/VAEdesign/targets/RdRp-SARS-CoV-2/pocket_docking.prm

>  <SCORE>
-21.552

>  <SCORE.INTER>
-19.5984

>  <SCORE.INTER.CONST>
1

>  <SCORE.INTER.POLAR>
-1.11454

>  <SCORE.INTER.REPUL>
0.0205396

>  <SCORE.INTER.ROT>
4

>  <SCORE.INTER.VDW>
-25.3117

>  <SCORE.INTER.norm>
-0.699944

>  <SCORE.INTRA>
-1.95357

>  <SCORE.INTRA.DIHEDRAL>
-1.78811

>  <SCORE.INTRA.DIHEDRAL.0>
12.8187

>  <SCORE.INTRA.POLAR>
0

>  <SCORE.INTRA.POLAR.0>
0

>  <SCORE.INTRA.REPUL>
0

>  <SCORE.INTRA.REPUL.0>
0

>  <SCORE.INTRA.VDW>
-1.05952

>  <SCORE.INTRA.VDW.0>
0.178398

>  <SCORE.INTRA.norm>
-0.0697704

>  <SCORE.RESTR>
0

>  <SCORE.RESTR.CAVITY>
0

>  <SCORE.RESTR.norm>
0

>  <SCORE.SYSTEM>
0

>  <SCORE.SYSTEM.CONST>
0

>  <SCORE.SYSTEM.DIHEDRAL>
0

>  <SCORE.SYSTEM.norm>
0

>  <SCORE.heavy>
28

>  <SCORE.norm>
-0.769715

$$$$
design_5
 OpenBabel05252019093D

 24 26  0  0  0  0  0  0  0  0999 V2000
   40.2740  -45.9739   11.1488 N   0  0  0  0  0  0  0  0  0  0  0  0
   40.5789  -45.3458    9.5478 S   0  0  0  0  0  0  0  0  0  0  0  0
   42.0783  -45.1625    9.4608 O   0  0  0  0  0  0  0  0  0  0  0  0
   39.9237  -44.0179    9.3527 O   0  0  0  0  0  0  0  0  0  0  0  0
   40.1128  -46.4985    8.3354 C   0  0  0  0  0  0  0  0  0  0  0  0
   39.3519  -47.5963    8.6339 C   0  0  0  0  0  0  0  0  0  0  0  0
   38.9777  -48.5215    7.6612 C   0  0  0  0  0  0  0  0  0  0  0  0
   39.3664  -48.3580    6.3544 C   0  0  0  0  0  0  0  0  0  0  0  0
   40.1399  -47.2468    6.0366 C   0  0  0  0  0  0  0  0  0  0  0  0
   40.5481  -47.0670    4.6872 N   0  0  0  0  0  0  0  0  0  0  0  0
   41.3794  -45.9224    4.3824 C   0  0  0  0  0  0  0  0  0  0  0  0
   40.6597  -44.8201    3.6630 C   0  0  0  0  0  0  0  0  0  0  0  0
   41.5668  -44.2431    2.6466 C   0  0  0  0  0  0  0  0  0  0  0  0
   42.4033  -44.8816    1.7643 C   0  0  0  0  0  0  0  0  0  0  0  0
   43.0381  -43.9095    1.0214 C   0  0  0  0  0  0  0  0  0  0  0  0
   42.5690  -42.7135    1.4740 N   0  0  0  0  0  0  0  0  0  0  0  0
   42.9896  -41.4560    0.9510 C   0  0  0  0  0  0  0  0  0  0  0  0
   42.3503  -40.2971    1.3293 C   0  0  0  0  0  0  0  0  0  0  0  0
   42.7122  -39.0460    0.8563 C   0  0  0  0  0  0  0  0  0  0  0  0
   43.7649  -38.9852   -0.0339 C   0  0  0  0  0  0  0  0  0  0  0  0
   44.4230  -40.1382   -0.4289 C   0  0  0  0  0  0  0  0  0  0  0  0
   44.0387  -41.3874    0.0627 C   0  0  0  0  0  0  0  0  0  0  0  0
   41.7080  -42.9298    2.4262 N   0  0  0  0  0  0  0  0  0  0  0  0
   40.4986  -46.3408    7.0241 C   0  0  0  0  0  0  0  0  0  0  0  0
  1  2  1  0  0  0  0
  2  3  2  0  0  0  0
  2  4  2  0  0  0  0
  2  5  1  0  0  0  0
  5  6  2  0  0  0  0
  6  7  1  0  0  0  0
  7  8  2  0  0  0  0
  8  9  1  0  0  0  0
  9 10  1  0  0  0  0
  9 24  2  0  0  0  0
 10 11  1  0  0  0  0
 11 12  1  0  0  0  0
 12 13  1  0  0  0  0
 13 14  1  0  0  0  0
 14 15  2  0  0  0  0
 15 16  1  0  0  0  0
 16 17  1  0  0  0  0
 16 23  1  0  0  0  0
 17 18  2  0  0  0  0
 18 19  1  0  0  0  0
 19 20  2  0  0  0  0
 20 21  1  0  0  0  0
 21 22  2  0  0  0  0
 22 17  1  0  0  0  0
 23 13  2  0  0  0  0
 24  5  1  0  0  0  0
M  END
>  <CHROM.1>
169.38937939,13.00443932,-178.53479315,-105.88205684,-141.24488159,43.68774773
171.43595700,41.40438821,-44.37711421,4.91999325,-2.58166267,-1.21269371
-1.97030803

>  <Name>
design_5

>  <RI>
0

>  <Rbt.Current_Directory>
/home/ziqiaoxu/icml18-jtnn/VAEdesign

>  <Rbt.Executable>
rbdock ($Id: //depot/dev/client3/rdock/2013.1/src/exe/rbdock.cxx#4 $)

>  <Rbt.Library>
libRbt.so (2013.1, Build901 2013/11/27)

>  <Rbt.Parameter_File>
/export/apps/rDock/src/rDock_2013.1_src//data/scripts/dock.prm

>  <Rbt.Receptor>
/home/ziqiaoxu/icml18-jtnn/VAEdesign/targets/RdRp-SARS-CoV-2/pocket_docking.prm

>  <SCORE>
-22.9355

>  <SCORE.INTER>
-23.7221

>  <SCORE.INTER.CONST>
1

>  <SCORE.INTER.POLAR>
-3.373

>  <SCORE.INTER.REPUL>
0.131312

>  <SCORE.INTER.ROT>
7

>  <SCORE.INTER.VDW>
-25.3104

>  <SCORE.INTER.norm>
-0.988419

>  <SCORE.INTRA>
0.78652

>  <SCORE.INTRA.DIHEDRAL>
-0.386097

>  <SCORE.INTRA.DIHEDRAL.0>
10.7852

>  <SCORE.INTRA.POLAR>
0

>  <SCORE.INTRA.POLAR.0>
0

>  <SCORE.INTRA.REPUL>
0

>  <SCORE.INTRA.REPUL.0>
0

>  <SCORE.INTRA.VDW>
0.979569

>  <SCORE.INTRA.VDW.0>
-0.435699

>  <SCORE.INTRA.norm>
0.0327717

>  <SCORE.RESTR>
0

>  <SCORE.RESTR.CAVITY>
0

>  <SCORE.RESTR.norm>
0

>  <SCORE.SYSTEM>
0

>  <SCORE.SYSTEM.CONST>
0

>  <SCORE.SYSTEM.DIHEDRAL>
0

>  <SCORE.SYSTEM.norm>
0

>  <SCORE.heavy>
24

>  <SCORE.norm>
-0.955647

$$$$
design_18
 OpenBabel05252019093D

 25 26  0  0  0  0  0  0  0  0999 V2000
   46.6385  -41.7115   10.5172 C   0  0  0  0  0  0  0  0  0  0  0  0
   45.6310  -42.5400    9.9607 O   0  0  0  0  0  0  0  0  0  0  0  0
   45.8479  -43.3315    8.8419 C   0  0  0  0  0  0  0  0  0  0  0  0
   47.0012  -43.2934    8.3441 O   0  0  0  0  0  0  0  0  0  0  0  0
   44.8128  -44.1695    8.2571 C   0  0  0  0  0  0  0  0  0  0  0  0
   43.5639  -44.2182    8.8364 C   0  0  0  0  0  0  0  0  0  0  0  0
   42.5383  -44.9735    8.3560 C   0  0  0  0  0  0  0  0  0  0  0  0
   42.7279  -45.7647    7.2006 C   0  0  0  0  0  0  0  0  0  0  0  0
   41.6366  -46.5506    6.7678 N   0  0  0  0  0  0  0  0  0  0  0  0
   40.6065  -46.9411    7.6218 C   0  0  0  0  0  0  0  0  0  0  0  0
   40.6691  -46.5772    8.8488 O   0  0  0  0  0  0  0  0  0  0  0  0
   39.4127  -47.7457    7.2882 C   0  0  0  0  0  0  0  0  0  0  0  0
   38.8295  -47.3406    6.0385 N   0  0  0  0  0  0  0  0  0  0  0  0
   38.0478  -46.1236    6.0204 C   0  0  0  0  0  0  0  0  0  0  0  0
   38.5309  -44.9743    6.5883 C   0  0  0  0  0  0  0  0  0  0  0  0
   37.7672  -43.8074    6.5643 C   0  0  0  0  0  0  0  0  0  0  0  0
   36.5273  -43.7892    5.9764 C   0  0  0  0  0  0  0  0  0  0  0  0
   35.6586  -42.6787    5.9070 N   0  0  0  0  0  0  0  0  0  0  0  0
   35.9242  -41.3716    6.3198 C   0  0  0  0  0  0  0  0  0  0  0  0
   34.8761  -40.2861    6.1692 C   0  0  0  0  0  0  0  0  0  0  0  0
   36.9973  -41.0211    6.8201 O   0  0  0  0  0  0  0  0  0  0  0  0
   36.0844  -44.9920    5.4118 C   0  0  0  0  0  0  0  0  0  0  0  0
   36.8082  -46.1524    5.4183 C   0  0  0  0  0  0  0  0  0  0  0  0
   43.9642  -45.7305    6.6105 C   0  0  0  0  0  0  0  0  0  0  0  0
   44.9871  -44.9402    7.1381 C   0  0  0  0  0  0  0  0  0  0  0  0
  1  2  1  0  0  0  0
  2  3  1  0  0  0  0
  3  4  2  0  0  0  0
  3  5  1  0  0  0  0
  5  6  2  0  0  0  0
  6  7  1  0  0  0  0
  7  8  2  0  0  0  0
  8  9  1  0  0  0  0
  8 24  1  0  0  0  0
  9 10  1  0  0  0  0
 10 11  2  0  0  0  0
 10 12  1  0  0  0  0
 12 13  1  0  0  0  0
 13 14  1  0  0  0  0
 14 15  2  0  0  0  0
 15 16  1  0  0  0  0
 16 17  2  0  0  0  0
 17 18  1  0  0  0  0
 17 22  1  0  0  0  0
 18 19  1  0  0  0  0
 19 20  1  0  0  0  0
 19 21  2  0  0  0  0
 22 23  2  0  0  0  0
 23 14  1  0  0  0  0
 24 25  2  0  0  0  0
 25  5  1  0  0  0  0
M  END
>  <CHROM.1>
0.82740365,-1.40557858,-22.77978251,-42.91689314,-76.49368717,48.35290953
5.47503119,40.67239513,-44.39288529,7.30517363,0.02799563,-0.29250914,0.17938979

>  <Name>
design_18

>  <RI>
0

>  <Rbt.Current_Directory>
/home/ziqiaoxu/icml18-jtnn/VAEdesign

>  <Rbt.Executable>
rbdock ($Id: //depot/dev/client3/rdock/2013.1/src/exe/rbdock.cxx#4 $)

>  <Rbt.Library>
libRbt.so (2013.1, Build901 2013/11/27)

>  <Rbt.Parameter_File>
/export/apps/rDock/src/rDock_2013.1_src//data/scripts/dock.prm

>  <Rbt.Receptor>
/home/ziqiaoxu/icml18-jtnn/VAEdesign/targets/RdRp-SARS-CoV-2/pocket_docking.prm

>  <SCORE>
-15.9187

>  <SCORE.INTER>
-18.2261

>  <SCORE.INTER.CONST>
1

>  <SCORE.INTER.POLAR>
-1.61018

>  <SCORE.INTER.REPUL>
0.0317563

>  <SCORE.INTER.ROT>
7

>  <SCORE.INTER.VDW>
-25.3103

>  <SCORE.INTER.norm>
-0.729044

>  <SCORE.INTRA>
2.30743

>  <SCORE.INTRA.DIHEDRAL>
4.79592

>  <SCORE.INTRA.DIHEDRAL.0>
8.26868

>  <SCORE.INTRA.POLAR>
0

>  <SCORE.INTRA.POLAR.0>
0

>  <SCORE.INTRA.REPUL>
0

>  <SCORE.INTRA.REPUL.0>
0

>  <SCORE.INTRA.VDW>
-0.0905243

>  <SCORE.INTRA.VDW.0>
2.10326

>  <SCORE.INTRA.norm>
0.0922974

>  <SCORE.RESTR>
0

>  <SCORE.RESTR.CAVITY>
0

>  <SCORE.RESTR.norm>
0

>  <SCORE.SYSTEM>
0

>  <SCORE.SYSTEM.CONST>
0

>  <SCORE.SYSTEM.DIHEDRAL>
0

>  <SCORE.SYSTEM.norm>
0

>  <SCORE.heavy>
25

>  <SCORE.norm>
-0.636747

$$$$
design_13
 OpenBabel05252019093D

 26 27  0  0  0  0  0  0  0  0999 V2000
   43.6902  -38.8007    0.4462 C   0  0  0  0  0  0  0  0  0  0  0  0
   42.2466  -39.1544    0.8355 C   0  0  0  0  0  0  0  0  0  0  0  0
   42.2285  -40.6008    1.2393 C   0  0  0  0  0  0  0  0  0  0  0  0
   41.9310  -40.7424    2.4866 O   0  0  0  0  0  0  0  0  0  0  0  0
   42.4966  -41.6743    0.4333 N   0  0  0  0  0  0  0  0  0  0  0  0
   42.4979  -43.0349    0.9643 C   0  0  0  0  0  0  0  0  0  0  0  0
   43.3749  -43.9760    0.5423 C   0  0  0  0  0  0  0  0  0  0  0  0
   43.3215  -45.2498    1.1127 C   0  0  0  0  0  0  0  0  0  0  0  0
   42.3840  -45.5178    2.0603 C   0  0  0  0  0  0  0  0  0  0  0  0
   41.4514  -44.5527    2.5190 C   0  0  0  0  0  0  0  0  0  0  0  0
   40.4760  -44.9707    3.4684 N   0  0  0  0  0  0  0  0  0  0  0  0
   39.1433  -45.3478    3.0035 C   0  0  0  0  0  0  0  0  0  0  0  0
   38.8576  -45.1633    1.8279 O   0  0  0  0  0  0  0  0  0  0  0  0
   38.2728  -45.9120    3.9434 N   0  0  0  0  0  0  0  0  0  0  0  0
   37.4370  -46.4495    4.8294 C   0  0  0  0  0  0  0  0  0  0  0  0
   37.9805  -47.2184    5.9580 C   0  0  0  0  0  0  0  0  0  0  0  0
   38.1695  -48.5488    6.0712 C   0  0  0  0  0  0  0  0  0  0  0  0
   38.7221  -49.1265    7.2162 C   0  0  0  0  0  0  0  0  0  0  0  0
   39.0986  -48.3402    8.2973 C   0  0  0  0  0  0  0  0  0  0  0  0
   38.9142  -46.9857    8.2056 C   0  0  0  0  0  0  0  0  0  0  0  0
   39.2341  -46.1131    9.3117 N   0  0  0  0  0  0  0  0  0  0  0  0
   40.4927  -45.5715    9.5098 C   0  0  0  0  0  0  0  0  0  0  0  0
   40.8531  -44.6612   10.6086 C   0  0  0  0  0  0  0  0  0  0  0  0
   41.3960  -45.9173    8.6456 O   0  0  0  0  0  0  0  0  0  0  0  0
   38.3669  -46.4202    7.0594 C   0  0  0  0  0  0  0  0  0  0  0  0
   41.5503  -43.3309    1.9425 C   0  0  0  0  0  0  0  0  0  0  0  0
  1  2  1  0  0  0  0
  2  3  1  0  0  0  0
  3  4  2  0  0  0  0
  3  5  1  0  0  0  0
  5  6  1  0  0  0  0
  6  7  2  0  0  0  0
  7  8  1  0  0  0  0
  8  9  2  0  0  0  0
  9 10  1  0  0  0  0
 10 11  1  0  0  0  0
 10 26  2  0  0  0  0
 11 12  1  0  0  0  0
 12 13  2  0  0  0  0
 12 14  1  0  0  0  0
 14 15  1  0  0  0  0
 15 16  1  0  0  0  0
 16 17  2  0  0  0  0
 17 18  1  0  0  0  0
 18 19  2  0  0  0  0
 19 20  1  0  0  0  0
 20 21  1  0  0  0  0
 20 25  2  0  0  0  0
 21 22  1  0  0  0  0
 22 23  1  0  0  0  0
 22 24  2  0  0  0  0
 25 16  1  0  0  0  0
 26  6  1  0  0  0  0
M  END
>  <CHROM.1>
115.08750442,-143.18966639,-96.95477724,151.02871779,-94.78352830,87.79725121
40.57037438,-44.67702482,4.32830209,-0.84996548,0.99907420,1.59335311

>  <Name>
design_13

>  <RI>
0

>  <Rbt.Current_Directory>
/home/ziqiaoxu/icml18-jtnn/VAEdesign

>  <Rbt.Executable>
rbdock ($Id: //depot/dev/client3/rdock/2013.1/src/exe/rbdock.cxx#4 $)

>  <Rbt.Library>
libRbt.so (2013.1, Build901 2013/11/27)

>  <Rbt.Parameter_File>
/export/apps/rDock/src/rDock_2013.1_src//data/scripts/dock.prm

>  <Rbt.Receptor>
/home/ziqiaoxu/icml18-jtnn/VAEdesign/targets/RdRp-SARS-CoV-2/pocket_docking.prm

>  <SCORE>
-18.5241

>  <SCORE.INTER>
-22.9681

>  <SCORE.INTER.CONST>
1

>  <SCORE.INTER.POLAR>
-2.66418

>  <SCORE.INTER.REPUL>
0

>  <SCORE.INTER.ROT>
6

>  <SCORE.INTER.VDW>
-25.3099

>  <SCORE.INTER.norm>
-0.883388

>  <SCORE.INTRA>
4.444

>  <SCORE.INTRA.DIHEDRAL>
14.341

>  <SCORE.INTRA.DIHEDRAL.0>
18.2808

>  <SCORE.INTRA.POLAR>
0

>  <SCORE.INTRA.POLAR.0>
0

>  <SCORE.INTRA.REPUL>
0

>  <SCORE.INTRA.REPUL.0>
0

>  <SCORE.INTRA.VDW>
-2.72653

>  <SCORE.INTRA.VDW.0>
0.634429

>  <SCORE.INTRA.norm>
0.170923

>  <SCORE.RESTR>
0

>  <SCORE.RESTR.CAVITY>
0

>  <SCORE.RESTR.norm>
0

>  <SCORE.SYSTEM>
0

>  <SCORE.SYSTEM.CONST>
0

>  <SCORE.SYSTEM.DIHEDRAL>
0

>  <SCORE.SYSTEM.norm>
0

>  <SCORE.heavy>
26

>  <SCORE.norm>
-0.712465

$$$$
design_0
 OpenBabel05252019093D

 25 27  0  0  0  0  0  0  0  0999 V2000
   48.8733  -44.0173    4.8394 N   0  0  0  0  0  0  0  0  0  0  0  0
   48.0107  -44.0606    5.6021 C   0  0  0  0  0  0  0  0  0  0  0  0
   46.9194  -44.1230    6.5340 C   0  0  0  0  0  0  0  0  0  0  0  0
   45.7818  -44.8871    6.2626 C   0  0  0  0  0  0  0  0  0  0  0  0
   44.7842  -44.8961    7.2006 C   0  0  0  0  0  0  0  0  0  0  0  0
   44.7967  -44.2196    8.3913 C   0  0  0  0  0  0  0  0  0  0  0  0
   43.7153  -44.2320    9.3636 C   0  0  0  0  0  0  0  0  0  0  0  0
   43.8626  -43.5946   10.4315 O   0  0  0  0  0  0  0  0  0  0  0  0
   42.5093  -44.9322    9.1474 N   0  0  0  0  0  0  0  0  0  0  0  0
   41.4584  -44.9091   10.1598 C   0  0  0  0  0  0  0  0  0  0  0  0
   40.1354  -45.2198    9.5388 C   0  0  0  0  0  0  0  0  0  0  0  0
   39.4877  -44.3227    8.9387 O   0  0  0  0  0  0  0  0  0  0  0  0
   39.6345  -46.5687    9.6513 N   0  0  0  0  0  0  0  0  0  0  0  0
   38.3603  -46.8312    9.0543 C   0  0  0  0  0  0  0  0  0  0  0  0
   38.4030  -46.9588    7.5455 C   0  0  0  0  0  0  0  0  0  0  0  0
   37.7012  -45.9038    6.7687 C   0  0  0  0  0  0  0  0  0  0  0  0
   38.2037  -44.6429    6.5451 C   0  0  0  0  0  0  0  0  0  0  0  0
   37.5196  -43.6781    5.8224 C   0  0  0  0  0  0  0  0  0  0  0  0
   36.2793  -43.9404    5.2826 C   0  0  0  0  0  0  0  0  0  0  0  0
   35.7667  -45.2010    5.5005 C   0  0  0  0  0  0  0  0  0  0  0  0
   36.4388  -46.1648    6.2164 C   0  0  0  0  0  0  0  0  0  0  0  0
   38.5220  -48.3261    6.9347 C   0  0  0  0  0  0  0  0  0  0  0  0
   39.7378  -47.4799    6.9802 C   0  0  0  0  0  0  0  0  0  0  0  0
   45.9275  -43.4831    8.6210 N   0  0  0  0  0  0  0  0  0  0  0  0
   46.9231  -43.4464    7.7339 C   0  0  0  0  0  0  0  0  0  0  0  0
  1  2  3  0  0  0  0
  2  3  1  0  0  0  0
  3  4  2  0  0  0  0
  4  5  1  0  0  0  0
  5  6  2  0  0  0  0
  6  7  1  0  0  0  0
  6 24  1  0  0  0  0
  7  8  2  0  0  0  0
  7  9  1  0  0  0  0
  9 10  1  0  0  0  0
 10 11  1  0  0  0  0
 11 12  2  0  0  0  0
 11 13  1  0  0  0  0
 13 14  1  0  0  0  0
 14 15  1  0  0  0  0
 15 16  1  0  0  0  0
 15 22  1  0  0  0  0
 16 17  2  0  0  0  0
 17 18  1  0  0  0  0
 18 19  2  0  0  0  0
 19 20  1  0  0  0  0
 20 21  2  0  0  0  0
 21 16  1  0  0  0  0
 22 23  1  0  0  0  0
 23 15  1  0  0  0  0
 24 25  2  0  0  0  0
 25  3  1  0  0  0  0
M  END
>  <CHROM.1>
178.35617694,157.50907066,-81.20072692,76.52346734,-113.55128463,77.73337589
41.57035288,-45.05077874,7.62255756,-0.00934420,-0.19086184,-1.49894589

>  <Name>
design_0

>  <RI>
0

>  <Rbt.Current_Directory>
/home/ziqiaoxu/icml18-jtnn/VAEdesign

>  <Rbt.Executable>
rbdock ($Id: //depot/dev/client3/rdock/2013.1/src/exe/rbdock.cxx#4 $)

>  <Rbt.Library>
libRbt.so (2013.1, Build901 2013/11/27)

>  <Rbt.Parameter_File>
/export/apps/rDock/src/rDock_2013.1_src//data/scripts/dock.prm

>  <Rbt.Receptor>
/home/ziqiaoxu/icml18-jtnn/VAEdesign/targets/RdRp-SARS-CoV-2/pocket_docking.prm

>  <SCORE>
-19.8298

>  <SCORE.INTER>
-19.0345

>  <SCORE.INTER.CONST>
1

>  <SCORE.INTER.POLAR>
-1.50726

>  <SCORE.INTER.REPUL>
0

>  <SCORE.INTER.ROT>
6

>  <SCORE.INTER.VDW>
-25.3099

>  <SCORE.INTER.norm>
-0.761382

>  <SCORE.INTRA>
-0.795284

>  <SCORE.INTRA.DIHEDRAL>
2.09161

>  <SCORE.INTRA.DIHEDRAL.0>
5.95661

>  <SCORE.INTRA.POLAR>
0

>  <SCORE.INTRA.POLAR.0>
0

>  <SCORE.INTRA.REPUL>
0

>  <SCORE.INTRA.REPUL.0>
0

>  <SCORE.INTRA.VDW>
-1.84109

>  <SCORE.INTRA.VDW.0>
-0.299484

>  <SCORE.INTRA.norm>
-0.0318114

>  <SCORE.RESTR>
0

>  <SCORE.RESTR.CAVITY>
0

>  <SCORE.RESTR.norm>
0

>  <SCORE.SYSTEM>
0

>  <SCORE.SYSTEM.CONST>
0

>  <SCORE.SYSTEM.DIHEDRAL>
0

>  <SCORE.SYSTEM.norm>
0

>  <SCORE.heavy>
25

>  <SCORE.norm>
-0.793193

$$$$
design_0
 OpenBabel05252019093D

 22 23  0  0  0  0  0  0  0  0999 V2000
   40.7891  -39.0323    8.5889 C   0  0  0  0  0  0  0  0  0  0  0  0
   39.6313  -38.5451    7.8820 O   0  0  0  0  0  0  0  0  0  0  0  0
   39.7521  -38.2194    6.5381 C   0  0  0  0  0  0  0  0  0  0  0  0
   39.8488  -36.9271    6.0714 C   0  0  0  0  0  0  0  0  0  0  0  0
   39.9788  -36.6479    4.6959 C   0  0  0  0  0  0  0  0  0  0  0  0
   40.0041  -37.6986    3.8122 C   0  0  0  0  0  0  0  0  0  0  0  0
   40.1612  -37.5588    2.3253 C   0  0  0  0  0  0  0  0  0  0  0  0
   40.4263  -38.9341    1.8636 N   0  0  0  0  0  0  0  0  0  0  0  0
   41.7035  -39.3862    1.4291 C   0  0  0  0  0  0  0  0  0  0  0  0
   42.6780  -38.6310    1.5009 O   0  0  0  0  0  0  0  0  0  0  0  0
   41.8630  -40.7640    0.8911 C   0  0  0  0  0  0  0  0  0  0  0  0
   43.2139  -41.2865    0.6964 C   0  0  0  0  0  0  0  0  0  0  0  0
   43.4106  -42.5083   -0.0436 N   0  0  0  0  0  0  0  0  0  0  0  0
   43.1782  -43.6944    0.7819 C   0  0  0  0  0  0  0  0  0  0  0  0
   42.7632  -43.4572    1.9564 O   0  0  0  0  0  0  0  0  0  0  0  0
   43.4361  -45.0095    0.2409 C   0  0  0  0  0  0  0  0  0  0  0  0
   45.0762  -44.7026    0.0219 C   0  0  0  0  0  0  0  0  0  0  0  0
   45.8125  -45.6076   -0.4643 C   0  0  0  0  0  0  0  0  0  0  0  0
   45.2403  -46.8045   -0.7920 C   0  0  0  0  0  0  0  0  0  0  0  0
   43.7291  -46.4932   -0.3717 S   0  0  0  0  0  0  0  0  0  0  0  0
   39.9007  -38.9975    4.3380 C   0  0  0  0  0  0  0  0  0  0  0  0
   39.7820  -39.2111    5.6376 N   0  0  0  0  0  0  0  0  0  0  0  0
  1  2  1  0  0  0  0
  2  3  1  0  0  0  0
  3  4  2  0  0  0  0
  4  5  1  0  0  0  0
  5  6  2  0  0  0  0
  6  7  1  0  0  0  0
  6 21  1  0  0  0  0
  7  8  1  0  0  0  0
  8  9  1  0  0  0  0
  9 10  2  0  0  0  0
  9 11  1  0  0  0  0
 11 12  1  0  0  0  0
 12 13  1  0  0  0  0
 13 14  1  0  0  0  0
 14 15  2  0  0  0  0
 14 16  1  0  0  0  0
 16 17  2  0  0  0  0
 17 18  1  0  0  0  0
 18 19  2  0  0  0  0
 19 20  1  0  0  0  0
 20 16  1  0  0  0  0
 21 22  2  0  0  0  0
 22  3  1  0  0  0  0
M  END
>  <CHROM.1>
-102.57258573,167.92401448,-106.74119271,-168.35886145,-168.69919386,-81.48668524
62.17162722,42.01486259,-41.20222485,2.48360749,-3.05682128,1.14583992,-0.98844370

>  <Name>
design_0

>  <RI>
0

>  <Rbt.Current_Directory>
/home/ziqiaoxu/icml18-jtnn/VAEdesign

>  <Rbt.Executable>
rbdock ($Id: //depot/dev/client3/rdock/2013.1/src/exe/rbdock.cxx#4 $)

>  <Rbt.Library>
libRbt.so (2013.1, Build901 2013/11/27)

>  <Rbt.Parameter_File>
/export/apps/rDock/src/rDock_2013.1_src//data/scripts/dock.prm

>  <Rbt.Receptor>
/home/ziqiaoxu/icml18-jtnn/VAEdesign/targets/RdRp-SARS-CoV-2/pocket_docking.prm

>  <SCORE>
-17.6015

>  <SCORE.INTER>
-19.2582

>  <SCORE.INTER.CONST>
1

>  <SCORE.INTER.POLAR>
-1.86842

>  <SCORE.INTER.REPUL>
0

>  <SCORE.INTER.ROT>
7

>  <SCORE.INTER.VDW>
-25.3056

>  <SCORE.INTER.norm>
-0.875373

>  <SCORE.INTRA>
1.65671

>  <SCORE.INTRA.DIHEDRAL>
4.03588

>  <SCORE.INTRA.DIHEDRAL.0>
10.7527

>  <SCORE.INTRA.POLAR>
0

>  <SCORE.INTRA.POLAR.0>
0

>  <SCORE.INTRA.REPUL>
0

>  <SCORE.INTRA.REPUL.0>
0

>  <SCORE.INTRA.VDW>
-0.361232

>  <SCORE.INTRA.VDW.0>
0.991276

>  <SCORE.INTRA.norm>
0.075305

>  <SCORE.RESTR>
0

>  <SCORE.RESTR.CAVITY>
0

>  <SCORE.RESTR.norm>
0

>  <SCORE.SYSTEM>
0

>  <SCORE.SYSTEM.CONST>
0

>  <SCORE.SYSTEM.DIHEDRAL>
0

>  <SCORE.SYSTEM.norm>
0

>  <SCORE.heavy>
22

>  <SCORE.norm>
-0.800068

$$$$
design_5
 OpenBabel05252019093D

 22 24  0  0  0  0  0  0  0  0999 V2000
   41.4479  -44.3528   10.7185 C   0  0  0  0  0  0  0  0  0  0  0  0
   40.8673  -45.3284    9.7269 C   0  0  0  0  0  0  0  0  0  0  0  0
   39.8389  -46.1283   10.1337 C   0  0  0  0  0  0  0  0  0  0  0  0
   39.3001  -47.0267    9.2301 C   0  0  0  0  0  0  0  0  0  0  0  0
   39.7599  -47.1460    7.9375 C   0  0  0  0  0  0  0  0  0  0  0  0
   39.0295  -48.3115    6.8665 S   0  0  0  0  0  0  0  0  0  0  0  0
   40.0889  -48.8343    5.8973 O   0  0  0  0  0  0  0  0  0  0  0  0
   38.5787  -49.4832    7.7237 O   0  0  0  0  0  0  0  0  0  0  0  0
   37.7567  -47.7237    5.9239 N   0  0  0  0  0  0  0  0  0  0  0  0
   37.4147  -46.3484    5.9072 C   0  0  0  0  0  0  0  0  0  0  0  0
   36.1990  -45.9266    5.3549 C   0  0  0  0  0  0  0  0  0  0  0  0
   35.8109  -44.6065    5.3161 C   0  0  0  0  0  0  0  0  0  0  0  0
   36.6358  -43.6446    5.8359 C   0  0  0  0  0  0  0  0  0  0  0  0
   37.8320  -44.0344    6.3825 C   0  0  0  0  0  0  0  0  0  0  0  0
   38.2185  -45.3549    6.4205 C   0  0  0  0  0  0  0  0  0  0  0  0
   38.6886  -43.0689    6.9183 O   0  0  0  0  0  0  0  0  0  0  0  0
   38.4338  -41.7072    6.6272 C   0  0  0  0  0  0  0  0  0  0  0  0
   36.9472  -41.4810    6.8108 C   0  0  0  0  0  0  0  0  0  0  0  0
   36.2858  -42.2822    5.8208 O   0  0  0  0  0  0  0  0  0  0  0  0
   40.7943  -46.3361    7.5398 C   0  0  0  0  0  0  0  0  0  0  0  0
   41.3650  -46.3736    6.1712 C   0  0  0  0  0  0  0  0  0  0  0  0
   41.3502  -45.4204    8.4465 C   0  0  0  0  0  0  0  0  0  0  0  0
  1  2  1  0  0  0  0
  2  3  2  0  0  0  0
  3  4  1  0  0  0  0
  4  5  2  0  0  0  0
  5  6  1  0  0  0  0
  5 20  1  0  0  0  0
  6  7  2  0  0  0  0
  6  8  2  0  0  0  0
  6  9  1  0  0  0  0
  9 10  1  0  0  0  0
 10 11  2  0  0  0  0
 11 12  1  0  0  0  0
 12 13  2  0  0  0  0
 13 14  1  0  0  0  0
 14 15  2  0  0  0  0
 14 16  1  0  0  0  0
 15 10  1  0  0  0  0
 16 17  1  0  0  0  0
 17 18  1  0  0  0  0
 18 19  1  0  0  0  0
 19 13  1  0  0  0  0
 20 21  1  0  0  0  0
 20 22  2  0  0  0  0
 22  2  1  0  0  0  0
M  END
>  <CHROM.1>
-147.73255234,6.59488442,-166.32697557,38.77615990,-45.66995288,7.13161299
-0.84750816,-0.73590012,0.21396613

>  <Name>
design_5

>  <RI>
0

>  <Rbt.Current_Directory>
/home/ziqiaoxu/icml18-jtnn/VAEdesign

>  <Rbt.Executable>
rbdock ($Id: //depot/dev/client3/rdock/2013.1/src/exe/rbdock.cxx#4 $)

>  <Rbt.Library>
libRbt.so (2013.1, Build901 2013/11/27)

>  <Rbt.Parameter_File>
/export/apps/rDock/src/rDock_2013.1_src//data/scripts/dock.prm

>  <Rbt.Receptor>
/home/ziqiaoxu/icml18-jtnn/VAEdesign/targets/RdRp-SARS-CoV-2/pocket_docking.prm

>  <SCORE>
-18.2716

>  <SCORE.INTER>
-16.5008

>  <SCORE.INTER.CONST>
1

>  <SCORE.INTER.POLAR>
-0.00592043

>  <SCORE.INTER.REPUL>
0.0844379

>  <SCORE.INTER.ROT>
3

>  <SCORE.INTER.VDW>
-25.3029

>  <SCORE.INTER.norm>
-0.750036

>  <SCORE.INTRA>
-1.77077

>  <SCORE.INTRA.DIHEDRAL>
-5.80029

>  <SCORE.INTRA.DIHEDRAL.0>
8.90909

>  <SCORE.INTRA.POLAR>
0

>  <SCORE.INTRA.POLAR.0>
0

>  <SCORE.INTRA.REPUL>
0

>  <SCORE.INTRA.REPUL.0>
0

>  <SCORE.INTRA.VDW>
1.12938

>  <SCORE.INTRA.VDW.0>
-2.18982

>  <SCORE.INTRA.norm>
-0.0804896

>  <SCORE.RESTR>
0

>  <SCORE.RESTR.CAVITY>
0

>  <SCORE.RESTR.norm>
0

>  <SCORE.SYSTEM>
0

>  <SCORE.SYSTEM.CONST>
0

>  <SCORE.SYSTEM.DIHEDRAL>
0

>  <SCORE.SYSTEM.norm>
0

>  <SCORE.heavy>
22

>  <SCORE.norm>
-0.830526

$$$$
design_5
 OpenBabel05252019093D

 22 23  0  0  0  0  0  0  0  0999 V2000
   40.0194  -46.3011   10.4715 N   0  0  0  0  0  0  0  0  0  0  0  0
   40.4549  -45.8030    9.2274 C   0  0  0  0  0  0  0  0  0  0  0  0
   40.9966  -44.6810    9.1459 O   0  0  0  0  0  0  0  0  0  0  0  0
   40.2501  -46.6420    8.0479 C   0  0  0  0  0  0  0  0  0  0  0  0
   39.4372  -47.7546    8.1089 C   0  0  0  0  0  0  0  0  0  0  0  0
   39.2604  -48.5278    6.9856 C   0  0  0  0  0  0  0  0  0  0  0  0
   39.8675  -48.2491    5.7582 C   0  0  0  0  0  0  0  0  0  0  0  0
   40.6755  -47.1463    5.6879 C   0  0  0  0  0  0  0  0  0  0  0  0
   41.3279  -46.7342    4.5113 N   0  0  0  0  0  0  0  0  0  0  0  0
   42.4202  -45.8445    4.3890 C   0  0  0  0  0  0  0  0  0  0  0  0
   42.9221  -45.3289    5.3955 O   0  0  0  0  0  0  0  0  0  0  0  0
   42.9890  -45.5064    3.0820 C   0  0  0  0  0  0  0  0  0  0  0  0
   42.4207  -44.3304    2.4041 C   0  0  0  0  0  0  0  0  0  0  0  0
   43.1717  -43.7396    1.2727 C   0  0  0  0  0  0  0  0  0  0  0  0
   42.3256  -42.1679    0.8324 S   0  0  0  0  0  0  0  0  0  0  0  0
   43.4804  -41.0128    0.1207 C   0  0  0  0  0  0  0  0  0  0  0  0
   43.3382  -39.6599    0.3270 C   0  0  0  0  0  0  0  0  0  0  0  0
   44.2237  -38.7356   -0.2173 C   0  0  0  0  0  0  0  0  0  0  0  0
   45.2611  -39.2299   -0.9797 C   0  0  0  0  0  0  0  0  0  0  0  0
   45.4534  -40.5782   -1.2203 C   0  0  0  0  0  0  0  0  0  0  0  0
   44.5341  -41.4484   -0.6483 C   0  0  0  0  0  0  0  0  0  0  0  0
   40.8451  -46.3695    6.8423 C   0  0  0  0  0  0  0  0  0  0  0  0
  1  2  1  0  0  0  0
  2  3  2  0  0  0  0
  2  4  1  0  0  0  0
  4  5  2  0  0  0  0
  5  6  1  0  0  0  0
  6  7  2  0  0  0  0
  7  8  1  0  0  0  0
  8  9  1  0  0  0  0
  8 22  2  0  0  0  0
  9 10  1  0  0  0  0
 10 11  2  0  0  0  0
 10 12  1  0  0  0  0
 12 13  1  0  0  0  0
 13 14  1  0  0  0  0
 14 15  1  0  0  0  0
 15 16  1  0  0  0  0
 16 17  2  0  0  0  0
 17 18  1  0  0  0  0
 18 19  2  0  0  0  0
 19 20  1  0  0  0  0
 20 21  2  0  0  0  0
 21 16  1  0  0  0  0
 22  4  1  0  0  0  0
M  END
>  <CHROM.1>
12.14908955,-162.67219710,90.87618196,164.44233593,-171.69703338,151.92412598
-146.69805258,42.07974461,-44.25698369,3.95848350,-2.89255500,-1.20592364
-2.22684781

>  <Name>
design_5

>  <RI>
0

>  <Rbt.Current_Directory>
/home/ziqiaoxu/icml18-jtnn/VAEdesign

>  <Rbt.Executable>
rbdock ($Id: //depot/dev/client3/rdock/2013.1/src/exe/rbdock.cxx#4 $)

>  <Rbt.Library>
libRbt.so (2013.1, Build901 2013/11/27)

>  <Rbt.Parameter_File>
/export/apps/rDock/src/rDock_2013.1_src//data/scripts/dock.prm

>  <Rbt.Receptor>
/home/ziqiaoxu/icml18-jtnn/VAEdesign/targets/RdRp-SARS-CoV-2/pocket_docking.prm

>  <SCORE>
-22.8021

>  <SCORE.INTER>
-23.9812

>  <SCORE.INTER.CONST>
1

>  <SCORE.INTER.POLAR>
-3.35924

>  <SCORE.INTER.REPUL>
0.0684258

>  <SCORE.INTER.ROT>
7

>  <SCORE.INTER.VDW>
-25.3019

>  <SCORE.INTER.norm>
-1.09006

>  <SCORE.INTRA>
1.17912

>  <SCORE.INTRA.DIHEDRAL>
3.50324

>  <SCORE.INTRA.DIHEDRAL.0>
4.44108

>  <SCORE.INTRA.POLAR>
0

>  <SCORE.INTRA.POLAR.0>
0

>  <SCORE.INTRA.REPUL>
0

>  <SCORE.INTRA.REPUL.0>
0

>  <SCORE.INTRA.VDW>
-0.572496

>  <SCORE.INTRA.VDW.0>
-0.305545

>  <SCORE.INTRA.norm>
0.0535964

>  <SCORE.RESTR>
0

>  <SCORE.RESTR.CAVITY>
0

>  <SCORE.RESTR.norm>
0

>  <SCORE.SYSTEM>
0

>  <SCORE.SYSTEM.CONST>
0

>  <SCORE.SYSTEM.DIHEDRAL>
0

>  <SCORE.SYSTEM.norm>
0

>  <SCORE.heavy>
22

>  <SCORE.norm>
-1.03646

$$$$
design_10
 OpenBabel05252019093D

 24 26  0  0  0  0  0  0  0  0999 V2000
   40.1861  -41.6415    6.5204 C   0  0  0  0  0  0  0  0  0  0  0  0
   39.8687  -42.0273    7.9329 C   0  0  0  0  0  0  0  0  0  0  0  0
   39.1817  -41.2085    8.7812 C   0  0  0  0  0  0  0  0  0  0  0  0
   38.9465  -41.6703   10.0632 C   0  0  0  0  0  0  0  0  0  0  0  0
   39.3694  -42.9010   10.5117 C   0  0  0  0  0  0  0  0  0  0  0  0
   40.0593  -43.7155    9.6490 C   0  0  0  0  0  0  0  0  0  0  0  0
   40.5663  -45.0620   10.0124 C   0  0  0  0  0  0  0  0  0  0  0  0
   40.4552  -46.0370    8.9718 N   0  0  0  0  0  0  0  0  0  0  0  0
   39.2515  -46.8817    8.8724 C   0  0  0  0  0  0  0  0  0  0  0  0
   38.4877  -46.5698    7.6457 C   0  0  0  0  0  0  0  0  0  0  0  0
   38.2278  -47.5916    6.7762 C   0  0  0  0  0  0  0  0  0  0  0  0
   37.5197  -47.3593    5.6168 C   0  0  0  0  0  0  0  0  0  0  0  0
   37.0904  -46.0605    5.3778 C   0  0  0  0  0  0  0  0  0  0  0  0
   37.3488  -45.0256    6.2499 C   0  0  0  0  0  0  0  0  0  0  0  0
   36.8103  -43.3806    5.9567 Cl  0  0  0  0  0  0  0  0  0  0  0  0
   38.0576  -45.2857    7.3996 C   0  0  0  0  0  0  0  0  0  0  0  0
   41.4532  -46.2448    8.0107 C   0  0  0  0  0  0  0  0  0  0  0  0
   41.1901  -47.1517    7.1315 O   0  0  0  0  0  0  0  0  0  0  0  0
   42.7381  -45.5450    7.9145 C   0  0  0  0  0  0  0  0  0  0  0  0
   43.6035  -45.7706    6.8441 C   0  0  0  0  0  0  0  0  0  0  0  0
   44.8999  -44.7315    7.2277 S   0  0  0  0  0  0  0  0  0  0  0  0
   44.2975  -44.0976    8.6611 N   0  0  0  0  0  0  0  0  0  0  0  0
   43.1588  -44.6876    8.7899 N   0  0  0  0  0  0  0  0  0  0  0  0
   40.2995  -43.2662    8.3699 C   0  0  0  0  0  0  0  0  0  0  0  0
  1  2  1  0  0  0  0
  2  3  2  0  0  0  0
  3  4  1  0  0  0  0
  4  5  2  0  0  0  0
  5  6  1  0  0  0  0
  6  7  1  0  0  0  0
  6 24  2  0  0  0  0
  7  8  1  0  0  0  0
  8  9  1  0  0  0  0
  8 17  1  0  0  0  0
  9 10  1  0  0  0  0
 10 11  2  0  0  0  0
 11 12  1  0  0  0  0
 12 13  2  0  0  0  0
 13 14  1  0  0  0  0
 14 15  1  0  0  0  0
 14 16  2  0  0  0  0
 16 10  1  0  0  0  0
 17 18  2  0  0  0  0
 17 19  1  0  0  0  0
 19 20  2  0  0  0  0
 20 21  1  0  0  0  0
 21 22  1  0  0  0  0
 22 23  2  0  0  0  0
 23 19  1  0  0  0  0
 24  2  1  0  0  0  0
M  END
>  <CHROM.1>
141.56525339,-91.18517492,113.38314827,123.83205045,-174.83009475,40.20477980
-44.66919007,7.73304425,3.08289795,0.21067168,-2.76302404

>  <Name>
design_10

>  <RI>
0

>  <Rbt.Current_Directory>
/home/ziqiaoxu/icml18-jtnn/VAEdesign

>  <Rbt.Executable>
rbdock ($Id: //depot/dev/client3/rdock/2013.1/src/exe/rbdock.cxx#4 $)

>  <Rbt.Library>
libRbt.so (2013.1, Build901 2013/11/27)

>  <Rbt.Parameter_File>
/export/apps/rDock/src/rDock_2013.1_src//data/scripts/dock.prm

>  <Rbt.Receptor>
/home/ziqiaoxu/icml18-jtnn/VAEdesign/targets/RdRp-SARS-CoV-2/pocket_docking.prm

>  <SCORE>
-17.2045

>  <SCORE.INTER>
-14.9

>  <SCORE.INTER.CONST>
1

>  <SCORE.INTER.POLAR>
0

>  <SCORE.INTER.REPUL>
0

>  <SCORE.INTER.ROT>
5

>  <SCORE.INTER.VDW>
-25.3

>  <SCORE.INTER.norm>
-0.620834

>  <SCORE.INTRA>
-2.30451

>  <SCORE.INTRA.DIHEDRAL>
0.0936361

>  <SCORE.INTRA.DIHEDRAL.0>
3.84043

>  <SCORE.INTRA.POLAR>
0

>  <SCORE.INTRA.POLAR.0>
0

>  <SCORE.INTRA.REPUL>
0

>  <SCORE.INTRA.REPUL.0>
0

>  <SCORE.INTRA.VDW>
-2.35133

>  <SCORE.INTRA.VDW.0>
-1.90707

>  <SCORE.INTRA.norm>
-0.0960214

>  <SCORE.RESTR>
0

>  <SCORE.RESTR.CAVITY>
0

>  <SCORE.RESTR.norm>
0

>  <SCORE.SYSTEM>
0

>  <SCORE.SYSTEM.CONST>
0

>  <SCORE.SYSTEM.DIHEDRAL>
0

>  <SCORE.SYSTEM.norm>
0

>  <SCORE.heavy>
24

>  <SCORE.norm>
-0.716855

$$$$
design_4
 OpenBabel05252019093D

 25 28  0  0  0  0  0  0  0  0999 V2000
   45.0981  -43.0329    6.3804 O   0  0  0  0  0  0  0  0  0  0  0  0
   45.3232  -44.2223    6.6740 C   0  0  0  0  0  0  0  0  0  0  0  0
   45.3572  -44.6670    7.9973 N   0  0  0  0  0  0  0  0  0  0  0  0
   45.1269  -43.8246    9.1306 C   0  0  0  0  0  0  0  0  0  0  0  0
   43.8308  -44.1495    9.7832 C   0  0  0  0  0  0  0  0  0  0  0  0
   42.6324  -43.8404    8.9674 C   0  0  0  0  0  0  0  0  0  0  0  0
   42.1427  -44.9993    8.2745 N   0  0  0  0  0  0  0  0  0  0  0  0
   42.7553  -45.5221    7.1653 C   0  0  0  0  0  0  0  0  0  0  0  0
   42.0722  -46.5604    6.6888 N   0  0  0  0  0  0  0  0  0  0  0  0
   40.9913  -46.7532    7.4689 C   0  0  0  0  0  0  0  0  0  0  0  0
   39.9596  -47.6774    7.4577 C   0  0  0  0  0  0  0  0  0  0  0  0
   38.9596  -47.6731    8.4043 C   0  0  0  0  0  0  0  0  0  0  0  0
   39.0149  -46.7042    9.3838 C   0  0  0  0  0  0  0  0  0  0  0  0
   40.0426  -45.7924    9.3847 C   0  0  0  0  0  0  0  0  0  0  0  0
   41.0638  -45.7599    8.4542 C   0  0  0  0  0  0  0  0  0  0  0  0
   45.5450  -45.1086    5.5796 N   0  0  0  0  0  0  0  0  0  0  0  0
   45.5218  -44.7083    4.2061 C   0  0  0  0  0  0  0  0  0  0  0  0
   44.1058  -44.8313    3.6995 C   0  0  0  0  0  0  0  0  0  0  0  0
   44.2246  -45.4072    2.3507 C   0  0  0  0  0  0  0  0  0  0  0  0
   43.2827  -45.4515    1.3315 C   0  0  0  0  0  0  0  0  0  0  0  0
   43.6037  -46.0475    0.1333 C   0  0  0  0  0  0  0  0  0  0  0  0
   44.8692  -46.5927   -0.0270 C   0  0  0  0  0  0  0  0  0  0  0  0
   45.8061  -46.5493    0.9849 C   0  0  0  0  0  0  0  0  0  0  0  0
   45.4706  -45.9456    2.1889 C   0  0  0  0  0  0  0  0  0  0  0  0
   46.2870  -45.7692    3.4149 C   0  0  0  0  0  0  0  0  0  0  0  0
  1  2  2  0  0  0  0
  2  3  1  0  0  0  0
  2 16  1  0  0  0  0
  3  4  1  0  0  0  0
  4  5  1  0  0  0  0
  5  6  1  0  0  0  0
  6  7  1  0  0  0  0
  7  8  1  0  0  0  0
  8  9  2  0  0  0  0
  9 10  1  0  0  0  0
 10 11  2  0  0  0  0
 11 12  1  0  0  0  0
 12 13  2  0  0  0  0
 13 14  1  0  0  0  0
 14 15  2  0  0  0  0
 15  7  1  0  0  0  0
 15 10  1  0  0  0  0
 16 17  1  0  0  0  0
 17 18  1  0  0  0  0
 18 19  1  0  0  0  0
 19 20  2  0  0  0  0
 20 21  1  0  0  0  0
 21 22  2  0  0  0  0
 22 23  1  0  0  0  0
 23 24  2  0  0  0  0
 24 25  1  0  0  0  0
 24 19  1  0  0  0  0
 25 17  1  0  0  0  0
M  END
>  <CHROM.1>
109.89982627,-66.87306560,97.22353462,-75.16677164,-88.97952041,43.37355635
-45.46486721,5.87034611,-1.01217222,0.48518297,1.28987567

>  <Name>
design_4

>  <RI>
0

>  <Rbt.Current_Directory>
/home/ziqiaoxu/icml18-jtnn/VAEdesign

>  <Rbt.Executable>
rbdock ($Id: //depot/dev/client3/rdock/2013.1/src/exe/rbdock.cxx#4 $)

>  <Rbt.Library>
libRbt.so (2013.1, Build901 2013/11/27)

>  <Rbt.Parameter_File>
/export/apps/rDock/src/rDock_2013.1_src//data/scripts/dock.prm

>  <Rbt.Receptor>
/home/ziqiaoxu/icml18-jtnn/VAEdesign/targets/RdRp-SARS-CoV-2/pocket_docking.prm

>  <SCORE>
-17.3972

>  <SCORE.INTER>
-18.9436

>  <SCORE.INTER.CONST>
1

>  <SCORE.INTER.POLAR>
-1.20449

>  <SCORE.INTER.REPUL>
0.0103151

>  <SCORE.INTER.ROT>
5

>  <SCORE.INTER.VDW>
-25.2999

>  <SCORE.INTER.norm>
-0.757742

>  <SCORE.INTRA>
1.54632

>  <SCORE.INTRA.DIHEDRAL>
3.52134

>  <SCORE.INTRA.DIHEDRAL.0>
5.12048

>  <SCORE.INTRA.POLAR>
0

>  <SCORE.INTRA.POLAR.0>
0

>  <SCORE.INTRA.REPUL>
0

>  <SCORE.INTRA.REPUL.0>
0

>  <SCORE.INTRA.VDW>
-0.214349

>  <SCORE.INTRA.VDW.0>
-1.42704

>  <SCORE.INTRA.norm>
0.0618529

>  <SCORE.RESTR>
0

>  <SCORE.RESTR.CAVITY>
0

>  <SCORE.RESTR.norm>
0

>  <SCORE.SYSTEM>
0

>  <SCORE.SYSTEM.CONST>
0

>  <SCORE.SYSTEM.DIHEDRAL>
0

>  <SCORE.SYSTEM.norm>
0

>  <SCORE.heavy>
25

>  <SCORE.norm>
-0.695889

$$$$
design_0
 OpenBabel05252019093D

 23 24  0  0  0  0  0  0  0  0999 V2000
   45.7227  -38.6447   -1.1285 C   0  0  0  0  0  0  0  0  0  0  0  0
   44.6859  -39.5466   -0.5701 C   0  0  0  0  0  0  0  0  0  0  0  0
   44.7953  -40.9076   -0.6937 C   0  0  0  0  0  0  0  0  0  0  0  0
   43.8123  -41.7693   -0.1646 C   0  0  0  0  0  0  0  0  0  0  0  0
   42.7133  -41.2994    0.4907 C   0  0  0  0  0  0  0  0  0  0  0  0
   41.6945  -42.0997    1.0433 N   0  0  0  0  0  0  0  0  0  0  0  0
   41.8016  -43.1552    1.9630 C   0  0  0  0  0  0  0  0  0  0  0  0
   42.8841  -43.5422    2.4375 O   0  0  0  0  0  0  0  0  0  0  0  0
   40.6050  -43.8293    2.3840 N   0  0  0  0  0  0  0  0  0  0  0  0
   40.6542  -44.9179    3.3243 C   0  0  0  0  0  0  0  0  0  0  0  0
   39.2857  -45.5203    3.4903 C   0  0  0  0  0  0  0  0  0  0  0  0
   39.2521  -46.2871    4.7416 C   0  0  0  0  0  0  0  0  0  0  0  0
   38.4394  -45.9917    5.6540 O   0  0  0  0  0  0  0  0  0  0  0  0
   40.1426  -47.3739    4.9307 N   0  0  0  0  0  0  0  0  0  0  0  0
   40.0814  -48.1036    6.1708 C   0  0  0  0  0  0  0  0  0  0  0  0
   40.2087  -47.2426    7.3762 C   0  0  0  0  0  0  0  0  0  0  0  0
   41.1557  -46.3108    7.7057 C   0  0  0  0  0  0  0  0  0  0  0  0
   41.0159  -45.6767    8.8748 C   0  0  0  0  0  0  0  0  0  0  0  0
   39.9414  -46.0043    9.6522 C   0  0  0  0  0  0  0  0  0  0  0  0
   39.1532  -47.1975    8.7189 S   0  0  0  0  0  0  0  0  0  0  0  0
   42.6238  -39.9041    0.6044 C   0  0  0  0  0  0  0  0  0  0  0  0
   41.4288  -39.3597    1.3185 C   0  0  0  0  0  0  0  0  0  0  0  0
   43.5840  -39.0640    0.0875 C   0  0  0  0  0  0  0  0  0  0  0  0
  1  2  1  0  0  0  0
  2  3  2  0  0  0  0
  3  4  1  0  0  0  0
  4  5  2  0  0  0  0
  5  6  1  0  0  0  0
  5 21  1  0  0  0  0
  6  7  1  0  0  0  0
  7  8  2  0  0  0  0
  7  9  1  0  0  0  0
  9 10  1  0  0  0  0
 10 11  1  0  0  0  0
 11 12  1  0  0  0  0
 12 13  2  0  0  0  0
 12 14  1  0  0  0  0
 14 15  1  0  0  0  0
 15 16  1  0  0  0  0
 16 17  2  0  0  0  0
 17 18  1  0  0  0  0
 18 19  2  0  0  0  0
 19 20  1  0  0  0  0
 20 16  1  0  0  0  0
 21 22  1  0  0  0  0
 21 23  2  0  0  0  0
 23  2  1  0  0  0  0
M  END
>  <CHROM.1>
54.61817910,-174.75826661,-160.96021051,120.15790571,-54.01766303,-52.22389263
41.38498011,-43.85939390,3.69583683,-0.93463563,0.90215196,1.76719437

>  <Name>
design_0

>  <RI>
0

>  <Rbt.Current_Directory>
/home/ziqiaoxu/icml18-jtnn/VAEdesign

>  <Rbt.Executable>
rbdock ($Id: //depot/dev/client3/rdock/2013.1/src/exe/rbdock.cxx#4 $)

>  <Rbt.Library>
libRbt.so (2013.1, Build901 2013/11/27)

>  <Rbt.Parameter_File>
/export/apps/rDock/src/rDock_2013.1_src//data/scripts/dock.prm

>  <Rbt.Receptor>
/home/ziqiaoxu/icml18-jtnn/VAEdesign/targets/RdRp-SARS-CoV-2/pocket_docking.prm

>  <SCORE>
-19.0022

>  <SCORE.INTER>
-20.0876

>  <SCORE.INTER.CONST>
1

>  <SCORE.INTER.POLAR>
-1.82002

>  <SCORE.INTER.REPUL>
0

>  <SCORE.INTER.ROT>
6

>  <SCORE.INTER.VDW>
-25.2995

>  <SCORE.INTER.norm>
-0.873374

>  <SCORE.INTRA>
1.08538

>  <SCORE.INTRA.DIHEDRAL>
11.8811

>  <SCORE.INTRA.DIHEDRAL.0>
3.73601

>  <SCORE.INTRA.POLAR>
0

>  <SCORE.INTRA.POLAR.0>
0

>  <SCORE.INTRA.REPUL>
0

>  <SCORE.INTRA.REPUL.0>
0

>  <SCORE.INTRA.VDW>
-4.85514

>  <SCORE.INTRA.VDW.0>
3.02873

>  <SCORE.INTRA.norm>
0.0471906

>  <SCORE.RESTR>
0

>  <SCORE.RESTR.CAVITY>
0

>  <SCORE.RESTR.norm>
0

>  <SCORE.SYSTEM>
0

>  <SCORE.SYSTEM.CONST>
0

>  <SCORE.SYSTEM.DIHEDRAL>
0

>  <SCORE.SYSTEM.norm>
0

>  <SCORE.heavy>
23

>  <SCORE.norm>
-0.826184

$$$$
design_5
 OpenBabel05252019093D

 24 27  0  0  0  0  0  0  0  0999 V2000
   41.1476  -44.5848   10.5342 C   0  0  0  0  0  0  0  0  0  0  0  0
   40.6825  -45.5861    9.5412 C   0  0  0  0  0  0  0  0  0  0  0  0
   39.5749  -46.3448    9.6830 N   0  0  0  0  0  0  0  0  0  0  0  0
   39.4450  -47.1347    8.6193 C   0  0  0  0  0  0  0  0  0  0  0  0
   38.4933  -48.0771    8.2933 C   0  0  0  0  0  0  0  0  0  0  0  0
   38.5587  -48.7965    7.1070 C   0  0  0  0  0  0  0  0  0  0  0  0
   39.6114  -48.5416    6.2539 C   0  0  0  0  0  0  0  0  0  0  0  0
   40.5734  -47.5884    6.5839 C   0  0  0  0  0  0  0  0  0  0  0  0
   40.5159  -46.8632    7.7699 C   0  0  0  0  0  0  0  0  0  0  0  0
   41.2944  -45.8870    8.3531 C   0  0  0  0  0  0  0  0  0  0  0  0
   42.5066  -45.3349    7.7693 C   0  0  0  0  0  0  0  0  0  0  0  0
   43.2968  -44.3316    8.1687 N   0  0  0  0  0  0  0  0  0  0  0  0
   44.3078  -44.1898    7.2953 C   0  0  0  0  0  0  0  0  0  0  0  0
   45.4396  -43.2303    7.2883 C   0  0  0  0  0  0  0  0  0  0  0  0
   45.9118  -42.9027    8.6379 C   0  0  0  0  0  0  0  0  0  0  0  0
   45.9080  -41.6994    9.0702 O   0  0  0  0  0  0  0  0  0  0  0  0
   46.3886  -43.8913    9.5161 N   0  0  0  0  0  0  0  0  0  0  0  0
   46.8650  -43.6271   10.8534 C   0  0  0  0  0  0  0  0  0  0  0  0
   45.6790  -43.4248   11.7715 C   0  0  0  0  0  0  0  0  0  0  0  0
   45.6815  -44.6094   12.7212 C   0  0  0  0  0  0  0  0  0  0  0  0
   46.6069  -45.6326   12.1233 C   0  0  0  0  0  0  0  0  0  0  0  0
   47.6375  -44.7708   11.4251 C   0  0  0  0  0  0  0  0  0  0  0  0
   44.1186  -45.1286    6.3527 N   0  0  0  0  0  0  0  0  0  0  0  0
   43.0606  -45.7884    6.6466 O   0  0  0  0  0  0  0  0  0  0  0  0
  1  2  1  0  0  0  0
  2  3  1  0  0  0  0
  3  4  1  0  0  0  0
  4  5  2  0  0  0  0
  5  6  1  0  0  0  0
  6  7  2  0  0  0  0
  7  8  1  0  0  0  0
  8  9  2  0  0  0  0
  9 10  1  0  0  0  0
  9  4  1  0  0  0  0
 10 11  1  0  0  0  0
 10  2  2  0  0  0  0
 11 12  2  0  0  0  0
 12 13  1  0  0  0  0
 13 14  1  0  0  0  0
 13 23  2  0  0  0  0
 14 15  1  0  0  0  0
 15 16  2  0  0  0  0
 15 17  1  0  0  0  0
 17 18  1  0  0  0  0
 18 19  1  0  0  0  0
 19 20  1  0  0  0  0
 20 21  1  0  0  0  0
 21 22  1  0  0  0  0
 22 18  1  0  0  0  0
 23 24  1  0  0  0  0
 24 11  1  0  0  0  0
M  END
>  <CHROM.1>
-5.51875876,34.46461732,-120.85425025,77.81838198,43.13978480,-45.27751361
8.88918389,2.85092972,-0.53936937,-1.46111414

>  <Name>
design_5

>  <RI>
0

>  <Rbt.Current_Directory>
/home/ziqiaoxu/icml18-jtnn/VAEdesign

>  <Rbt.Executable>
rbdock ($Id: //depot/dev/client3/rdock/2013.1/src/exe/rbdock.cxx#4 $)

>  <Rbt.Library>
libRbt.so (2013.1, Build901 2013/11/27)

>  <Rbt.Parameter_File>
/export/apps/rDock/src/rDock_2013.1_src//data/scripts/dock.prm

>  <Rbt.Receptor>
/home/ziqiaoxu/icml18-jtnn/VAEdesign/targets/RdRp-SARS-CoV-2/pocket_docking.prm

>  <SCORE>
-23.9306

>  <SCORE.INTER>
-23.5033

>  <SCORE.INTER.CONST>
1

>  <SCORE.INTER.POLAR>
-2.23705

>  <SCORE.INTER.REPUL>
0

>  <SCORE.INTER.ROT>
4

>  <SCORE.INTER.VDW>
-25.2974

>  <SCORE.INTER.norm>
-0.979305

>  <SCORE.INTRA>
-0.427244

>  <SCORE.INTRA.DIHEDRAL>
0.104908

>  <SCORE.INTRA.DIHEDRAL.0>
3.89616

>  <SCORE.INTRA.POLAR>
0

>  <SCORE.INTRA.POLAR.0>
0

>  <SCORE.INTRA.REPUL>
0

>  <SCORE.INTRA.REPUL.0>
0

>  <SCORE.INTRA.VDW>
-0.479698

>  <SCORE.INTRA.VDW.0>
-1.81143

>  <SCORE.INTRA.norm>
-0.0178018

>  <SCORE.RESTR>
0

>  <SCORE.RESTR.CAVITY>
0

>  <SCORE.RESTR.norm>
0

>  <SCORE.SYSTEM>
0

>  <SCORE.SYSTEM.CONST>
0

>  <SCORE.SYSTEM.DIHEDRAL>
0

>  <SCORE.SYSTEM.norm>
0

>  <SCORE.heavy>
24

>  <SCORE.norm>
-0.997107

$$$$
design_0
 OpenBabel05252019093D

 23 24  0  0  0  0  0  0  0  0999 V2000
   39.2369  -48.8554    6.4346 C   0  0  0  0  0  0  0  0  0  0  0  0
   38.7708  -48.2508    8.0829 S   0  0  0  0  0  0  0  0  0  0  0  0
   39.8892  -46.9711    8.5842 C   0  0  0  0  0  0  0  0  0  0  0  0
   39.7080  -46.3404    9.8018 C   0  0  0  0  0  0  0  0  0  0  0  0
   40.5969  -45.3574   10.1689 C   0  0  0  0  0  0  0  0  0  0  0  0
   41.6347  -45.0102    9.3533 C   0  0  0  0  0  0  0  0  0  0  0  0
   41.8492  -45.6338    8.1049 C   0  0  0  0  0  0  0  0  0  0  0  0
   42.9323  -45.1361    7.3301 N   0  0  0  0  0  0  0  0  0  0  0  0
   43.9027  -44.6902    6.6362 C   0  0  0  0  0  0  0  0  0  0  0  0
   43.9809  -43.5335    6.0509 O   0  0  0  0  0  0  0  0  0  0  0  0
   45.1150  -45.4666    6.3938 N   0  0  0  0  0  0  0  0  0  0  0  0
   46.1665  -44.9210    5.5911 C   0  0  0  0  0  0  0  0  0  0  0  0
   46.3186  -45.4989    4.2345 C   0  0  0  0  0  0  0  0  0  0  0  0
   45.4007  -45.3945    3.4189 O   0  0  0  0  0  0  0  0  0  0  0  0
   47.5299  -46.1542    3.9455 N   0  0  0  0  0  0  0  0  0  0  0  0
   47.8737  -46.7615    2.7235 C   0  0  0  0  0  0  0  0  0  0  0  0
   49.1503  -47.3533    2.6207 C   0  0  0  0  0  0  0  0  0  0  0  0
   49.5366  -47.9289    1.4426 C   0  0  0  0  0  0  0  0  0  0  0  0
   48.7271  -47.9607    0.3274 C   0  0  0  0  0  0  0  0  0  0  0  0
   47.4927  -47.3855    0.4333 C   0  0  0  0  0  0  0  0  0  0  0  0
   46.6326  -47.3698   -0.6171 F   0  0  0  0  0  0  0  0  0  0  0  0
   47.0723  -46.7904    1.6267 C   0  0  0  0  0  0  0  0  0  0  0  0
   40.9581  -46.6045    7.7585 C   0  0  0  0  0  0  0  0  0  0  0  0
  1  2  1  0  0  0  0
  2  3  1  0  0  0  0
  3  4  2  0  0  0  0
  4  5  1  0  0  0  0
  5  6  2  0  0  0  0
  6  7  1  0  0  0  0
  7  8  1  0  0  0  0
  7 23  2  0  0  0  0
  8  9  1  0  0  0  0
  9 10  2  0  0  0  0
  9 11  1  0  0  0  0
 11 12  1  0  0  0  0
 12 13  1  0  0  0  0
 13 14  2  0  0  0  0
 13 15  1  0  0  0  0
 15 16  1  0  0  0  0
 16 17  2  0  0  0  0
 17 18  1  0  0  0  0
 18 19  2  0  0  0  0
 19 20  1  0  0  0  0
 20 21  1  0  0  0  0
 20 22  2  0  0  0  0
 22 16  1  0  0  0  0
 23  3  1  0  0  0  0
M  END
>  <CHROM.1>
178.62404638,-6.15067845,-106.76999780,62.32208730,179.03865076,44.08130082
-46.41684092,5.31023964,2.57749111,0.49673575,0.87885782

>  <Name>
design_0

>  <RI>
0

>  <Rbt.Current_Directory>
/home/ziqiaoxu/icml18-jtnn/VAEdesign

>  <Rbt.Executable>
rbdock ($Id: //depot/dev/client3/rdock/2013.1/src/exe/rbdock.cxx#4 $)

>  <Rbt.Library>
libRbt.so (2013.1, Build901 2013/11/27)

>  <Rbt.Parameter_File>
/export/apps/rDock/src/rDock_2013.1_src//data/scripts/dock.prm

>  <Rbt.Receptor>
/home/ziqiaoxu/icml18-jtnn/VAEdesign/targets/RdRp-SARS-CoV-2/pocket_docking.prm

>  <SCORE>
-20.3842

>  <SCORE.INTER>
-19.8293

>  <SCORE.INTER.CONST>
1

>  <SCORE.INTER.POLAR>
-1.45088

>  <SCORE.INTER.REPUL>
0

>  <SCORE.INTER.ROT>
5

>  <SCORE.INTER.VDW>
-25.2963

>  <SCORE.INTER.norm>
-0.862142

>  <SCORE.INTRA>
-0.55496

>  <SCORE.INTRA.DIHEDRAL>
-0.588008

>  <SCORE.INTRA.DIHEDRAL.0>
11.2939

>  <SCORE.INTRA.POLAR>
0

>  <SCORE.INTRA.POLAR.0>
0

>  <SCORE.INTRA.REPUL>
0

>  <SCORE.INTRA.REPUL.0>
0

>  <SCORE.INTRA.VDW>
-0.260956

>  <SCORE.INTRA.VDW.0>
-0.610647

>  <SCORE.INTRA.norm>
-0.0241287

>  <SCORE.RESTR>
0

>  <SCORE.RESTR.CAVITY>
0

>  <SCORE.RESTR.norm>
0

>  <SCORE.SYSTEM>
0

>  <SCORE.SYSTEM.CONST>
0

>  <SCORE.SYSTEM.DIHEDRAL>
0

>  <SCORE.SYSTEM.norm>
0

>  <SCORE.heavy>
23

>  <SCORE.norm>
-0.88627

$$$$
design_10
 OpenBabel05252019093D

 25 28  0  0  0  0  0  0  0  0999 V2000
   42.7233  -45.3443    3.7752 C   0  0  0  0  0  0  0  0  0  0  0  0
   43.2847  -45.2897    5.1751 C   0  0  0  0  0  0  0  0  0  0  0  0
   44.6754  -45.3157    5.2882 C   0  0  0  0  0  0  0  0  0  0  0  0
   45.2614  -45.2506    6.5156 C   0  0  0  0  0  0  0  0  0  0  0  0
   44.4961  -45.1594    7.6383 C   0  0  0  0  0  0  0  0  0  0  0  0
   43.1291  -45.1319    7.5402 C   0  0  0  0  0  0  0  0  0  0  0  0
   42.5086  -45.1971    6.3055 C   0  0  0  0  0  0  0  0  0  0  0  0
   41.0383  -45.2070    6.1613 C   0  0  0  0  0  0  0  0  0  0  0  0
   40.3151  -45.8875    7.2045 N   0  0  0  0  0  0  0  0  0  0  0  0
   40.0143  -45.3856    8.4005 C   0  0  0  0  0  0  0  0  0  0  0  0
   40.2559  -44.0619    8.9834 C   0  0  0  0  0  0  0  0  0  0  0  0
   41.1466  -43.3154    8.5485 O   0  0  0  0  0  0  0  0  0  0  0  0
   39.4595  -43.6121   10.0716 N   0  0  0  0  0  0  0  0  0  0  0  0
   39.7097  -42.3074   10.6210 C   0  0  0  0  0  0  0  0  0  0  0  0
   39.5349  -41.3113    9.4915 C   0  0  0  0  0  0  0  0  0  0  0  0
   40.4085  -40.3131    9.1445 C   0  0  0  0  0  0  0  0  0  0  0  0
   40.0764  -39.5362    8.1063 C   0  0  0  0  0  0  0  0  0  0  0  0
   38.8868  -39.8052    7.4758 C   0  0  0  0  0  0  0  0  0  0  0  0
   38.2780  -41.1321    8.3559 S   0  0  0  0  0  0  0  0  0  0  0  0
   39.3438  -46.4185    9.0852 C   0  0  0  0  0  0  0  0  0  0  0  0
   39.2595  -47.5211    8.2749 C   0  0  0  0  0  0  0  0  0  0  0  0
   38.8400  -48.7553    8.1619 O   0  0  0  0  0  0  0  0  0  0  0  0
   39.1340  -49.2495    6.9905 C   0  0  0  0  0  0  0  0  0  0  0  0
   39.7969  -48.2912    6.2561 C   0  0  0  0  0  0  0  0  0  0  0  0
   39.8711  -47.1743    7.1015 C   0  0  0  0  0  0  0  0  0  0  0  0
  1  2  1  0  0  0  0
  2  3  2  0  0  0  0
  3  4  1  0  0  0  0
  4  5  2  0  0  0  0
  5  6  1  0  0  0  0
  6  7  2  0  0  0  0
  7  8  1  0  0  0  0
  7  2  1  0  0  0  0
  8  9  1  0  0  0  0
  9 10  1  0  0  0  0
 10 11  1  0  0  0  0
 10 20  2  0  0  0  0
 11 12  2  0  0  0  0
 11 13  1  0  0  0  0
 13 14  1  0  0  0  0
 14 15  1  0  0  0  0
 15 16  2  0  0  0  0
 16 17  1  0  0  0  0
 17 18  2  0  0  0  0
 18 19  1  0  0  0  0
 19 15  1  0  0  0  0
 20 21  1  0  0  0  0
 21 22  1  0  0  0  0
 22 23  1  0  0  0  0
 23 24  2  0  0  0  0
 24 25  1  0  0  0  0
 25  9  1  0  0  0  0
 25 21  2  0  0  0  0
M  END
>  <CHROM.1>
144.00015726,80.65696207,-21.82581256,58.44938930,-130.68473269,40.70294579
-44.46050184,7.67410019,-1.17619662,0.51383422,0.17504903

>  <Name>
design_10

>  <RI>
0

>  <Rbt.Current_Directory>
/home/ziqiaoxu/icml18-jtnn/VAEdesign

>  <Rbt.Executable>
rbdock ($Id: //depot/dev/client3/rdock/2013.1/src/exe/rbdock.cxx#4 $)

>  <Rbt.Library>
libRbt.so (2013.1, Build901 2013/11/27)

>  <Rbt.Parameter_File>
/export/apps/rDock/src/rDock_2013.1_src//data/scripts/dock.prm

>  <Rbt.Receptor>
/home/ziqiaoxu/icml18-jtnn/VAEdesign/targets/RdRp-SARS-CoV-2/pocket_docking.prm

>  <SCORE>
-18.3791

>  <SCORE.INTER>
-18.3635

>  <SCORE.INTER.CONST>
1

>  <SCORE.INTER.POLAR>
-1.0198

>  <SCORE.INTER.REPUL>
0

>  <SCORE.INTER.ROT>
5

>  <SCORE.INTER.VDW>
-25.2962

>  <SCORE.INTER.norm>
-0.73454

>  <SCORE.INTRA>
-0.0155633

>  <SCORE.INTRA.DIHEDRAL>
0.0518403

>  <SCORE.INTRA.DIHEDRAL.0>
6.26125

>  <SCORE.INTRA.POLAR>
0

>  <SCORE.INTRA.POLAR.0>
0

>  <SCORE.INTRA.REPUL>
0

>  <SCORE.INTRA.REPUL.0>
0

>  <SCORE.INTRA.VDW>
-0.0414835

>  <SCORE.INTRA.VDW.0>
-2.95272

>  <SCORE.INTRA.norm>
-0.000622533

>  <SCORE.RESTR>
0

>  <SCORE.RESTR.CAVITY>
0

>  <SCORE.RESTR.norm>
0

>  <SCORE.SYSTEM>
0

>  <SCORE.SYSTEM.CONST>
0

>  <SCORE.SYSTEM.DIHEDRAL>
0

>  <SCORE.SYSTEM.norm>
0

>  <SCORE.heavy>
25

>  <SCORE.norm>
-0.735163

$$$$
design_9
 OpenBabel05252019093D

 24 25  0  0  0  0  0  0  0  0999 V2000
   44.4902  -43.6462    8.1786 C   0  0  0  0  0  0  0  0  0  0  0  0
   44.9015  -45.0139    7.6578 C   0  0  0  0  0  0  0  0  0  0  0  0
   44.3628  -45.2399    6.2942 C   0  0  0  0  0  0  0  0  0  0  0  0
   45.1111  -44.9713    5.1683 C   0  0  0  0  0  0  0  0  0  0  0  0
   44.5897  -45.1894    3.9195 C   0  0  0  0  0  0  0  0  0  0  0  0
   43.2942  -45.6864    3.7676 C   0  0  0  0  0  0  0  0  0  0  0  0
   42.5438  -45.9553    4.8741 C   0  0  0  0  0  0  0  0  0  0  0  0
   41.2239  -46.4321    4.8175 N   0  0  0  0  0  0  0  0  0  0  0  0
   40.4343  -46.7690    5.9281 C   0  0  0  0  0  0  0  0  0  0  0  0
   40.8376  -46.6831    7.0948 O   0  0  0  0  0  0  0  0  0  0  0  0
   39.0300  -47.2583    5.6906 C   0  0  0  0  0  0  0  0  0  0  0  0
   38.1163  -46.0947    5.7667 C   0  0  0  0  0  0  0  0  0  0  0  0
   36.8096  -46.2999    5.4030 C   0  0  0  0  0  0  0  0  0  0  0  0
   35.9280  -45.2212    5.4652 C   0  0  0  0  0  0  0  0  0  0  0  0
   36.2956  -43.9647    5.8706 C   0  0  0  0  0  0  0  0  0  0  0  0
   35.4559  -42.8337    5.9582 N   0  0  0  0  0  0  0  0  0  0  0  0
   35.7023  -41.5975    6.5489 C   0  0  0  0  0  0  0  0  0  0  0  0
   36.7821  -41.3365    7.1102 O   0  0  0  0  0  0  0  0  0  0  0  0
   34.6844  -40.4926    6.5509 C   0  0  0  0  0  0  0  0  0  0  0  0
   35.1506  -39.3587    5.6578 C   0  0  0  0  0  0  0  0  0  0  0  0
   34.3857  -40.0400    7.9423 C   0  0  0  0  0  0  0  0  0  0  0  0
   37.6390  -43.8173    6.2285 C   0  0  0  0  0  0  0  0  0  0  0  0
   38.5385  -44.8499    6.1822 C   0  0  0  0  0  0  0  0  0  0  0  0
   43.1014  -45.7235    6.1400 C   0  0  0  0  0  0  0  0  0  0  0  0
  1  2  1  0  0  0  0
  2  3  1  0  0  0  0
  3  4  2  0  0  0  0
  4  5  1  0  0  0  0
  5  6  2  0  0  0  0
  6  7  1  0  0  0  0
  7  8  1  0  0  0  0
  7 24  2  0  0  0  0
  8  9  1  0  0  0  0
  9 10  2  0  0  0  0
  9 11  1  0  0  0  0
 11 12  1  0  0  0  0
 12 13  2  0  0  0  0
 13 14  1  0  0  0  0
 14 15  2  0  0  0  0
 15 16  1  0  0  0  0
 15 22  1  0  0  0  0
 16 17  1  0  0  0  0
 17 18  2  0  0  0  0
 17 19  1  0  0  0  0
 19 20  1  0  0  0  0
 19 21  1  0  0  0  0
 22 23  2  0  0  0  0
 23 12  1  0  0  0  0
 24  3  1  0  0  0  0
M  END
>  <CHROM.1>
94.75256877,177.46626916,-93.43868233,171.59620919,168.92590299,-111.12264050
39.51133105,-44.28878304,6.04684181,-0.43920546,-0.06502957,0.30806894

>  <Name>
design_9

>  <RI>
0

>  <Rbt.Current_Directory>
/home/ziqiaoxu/icml18-jtnn/VAEdesign

>  <Rbt.Executable>
rbdock ($Id: //depot/dev/client3/rdock/2013.1/src/exe/rbdock.cxx#4 $)

>  <Rbt.Library>
libRbt.so (2013.1, Build901 2013/11/27)

>  <Rbt.Parameter_File>
/export/apps/rDock/src/rDock_2013.1_src//data/scripts/dock.prm

>  <Rbt.Receptor>
/home/ziqiaoxu/icml18-jtnn/VAEdesign/targets/RdRp-SARS-CoV-2/pocket_docking.prm

>  <SCORE>
-15.6759

>  <SCORE.INTER>
-18.9553

>  <SCORE.INTER.CONST>
1

>  <SCORE.INTER.POLAR>
-1.48848

>  <SCORE.INTER.REPUL>
0

>  <SCORE.INTER.ROT>
6

>  <SCORE.INTER.VDW>
-25.2945

>  <SCORE.INTER.norm>
-0.789806

>  <SCORE.INTRA>
3.25156

>  <SCORE.INTRA.DIHEDRAL>
1.86484

>  <SCORE.INTRA.DIHEDRAL.0>
5.17204

>  <SCORE.INTRA.POLAR>
0

>  <SCORE.INTRA.POLAR.0>
0

>  <SCORE.INTRA.REPUL>
0

>  <SCORE.INTRA.REPUL.0>
0

>  <SCORE.INTRA.VDW>
2.31914

>  <SCORE.INTRA.VDW.0>
-0.572977

>  <SCORE.INTRA.norm>
0.135482

>  <SCORE.RESTR>
0.0278948

>  <SCORE.RESTR.CAVITY>
0.0278948

>  <SCORE.RESTR.norm>
0.00116228

>  <SCORE.SYSTEM>
0

>  <SCORE.SYSTEM.CONST>
0

>  <SCORE.SYSTEM.DIHEDRAL>
0

>  <SCORE.SYSTEM.norm>
0

>  <SCORE.heavy>
24

>  <SCORE.norm>
-0.653162

$$$$
design_13
 OpenBabel05252019093D

 22 24  0  0  0  0  0  0  0  0999 V2000
   43.6681  -45.6110   -0.1170 N   0  0  0  0  0  0  0  0  0  0  0  0
   44.8820  -46.2774    0.1658 C   0  0  0  0  0  0  0  0  0  0  0  0
   45.4847  -46.8288   -0.7802 O   0  0  0  0  0  0  0  0  0  0  0  0
   45.4338  -46.3345    1.5057 C   0  0  0  0  0  0  0  0  0  0  0  0
   46.6183  -47.0020    1.7694 C   0  0  0  0  0  0  0  0  0  0  0  0
   47.1438  -47.0568    3.0434 C   0  0  0  0  0  0  0  0  0  0  0  0
   46.4883  -46.4404    4.0814 C   0  0  0  0  0  0  0  0  0  0  0  0
   45.3134  -45.7696    3.8619 C   0  0  0  0  0  0  0  0  0  0  0  0
   44.5886  -45.0978    4.9624 C   0  0  0  0  0  0  0  0  0  0  0  0
   43.7282  -44.2459    4.6319 O   0  0  0  0  0  0  0  0  0  0  0  0
   44.8282  -45.3772    6.3283 N   0  0  0  0  0  0  0  0  0  0  0  0
   44.0558  -44.6555    7.3275 C   0  0  0  0  0  0  0  0  0  0  0  0
   42.7717  -45.4127    7.5617 C   0  0  0  0  0  0  0  0  0  0  0  0
   42.1717  -46.2859    6.7899 N   0  0  0  0  0  0  0  0  0  0  0  0
   41.0570  -46.8456    7.1590 C   0  0  0  0  0  0  0  0  0  0  0  0
   40.3249  -47.7883    6.4257 C   0  0  0  0  0  0  0  0  0  0  0  0
   39.1579  -48.3237    6.8980 C   0  0  0  0  0  0  0  0  0  0  0  0
   38.6542  -47.9568    8.1165 C   0  0  0  0  0  0  0  0  0  0  0  0
   39.3448  -47.0362    8.8613 C   0  0  0  0  0  0  0  0  0  0  0  0
   40.5466  -46.4826    8.3787 C   0  0  0  0  0  0  0  0  0  0  0  0
   41.7128  -45.3529    8.9158 S   0  0  0  0  0  0  0  0  0  0  0  0
   44.8116  -45.7316    2.5767 C   0  0  0  0  0  0  0  0  0  0  0  0
  1  2  1  0  0  0  0
  2  3  2  0  0  0  0
  2  4  1  0  0  0  0
  4  5  2  0  0  0  0
  5  6  1  0  0  0  0
  6  7  2  0  0  0  0
  7  8  1  0  0  0  0
  8  9  1  0  0  0  0
  8 22  2  0  0  0  0
  9 10  2  0  0  0  0
  9 11  1  0  0  0  0
 11 12  1  0  0  0  0
 12 13  1  0  0  0  0
 13 14  2  0  0  0  0
 14 15  1  0  0  0  0
 15 16  2  0  0  0  0
 16 17  1  0  0  0  0
 17 18  2  0  0  0  0
 18 19  1  0  0  0  0
 19 20  2  0  0  0  0
 20 21  1  0  0  0  0
 20 15  1  0  0  0  0
 21 13  1  0  0  0  0
 22  4  1  0  0  0  0
M  END
>  <CHROM.1>
179.39426514,162.74030477,87.10342656,-21.00283311,43.24255145,-46.18749061
5.09329922,0.88221744,-0.40254780,-1.83377662

>  <Name>
design_13

>  <RI>
0

>  <Rbt.Current_Directory>
/home/ziqiaoxu/icml18-jtnn/VAEdesign

>  <Rbt.Executable>
rbdock ($Id: //depot/dev/client3/rdock/2013.1/src/exe/rbdock.cxx#4 $)

>  <Rbt.Library>
libRbt.so (2013.1, Build901 2013/11/27)

>  <Rbt.Parameter_File>
/export/apps/rDock/src/rDock_2013.1_src//data/scripts/dock.prm

>  <Rbt.Receptor>
/home/ziqiaoxu/icml18-jtnn/VAEdesign/targets/RdRp-SARS-CoV-2/pocket_docking.prm

>  <SCORE>
-22.1023

>  <SCORE.INTER>
-22.1962

>  <SCORE.INTER.CONST>
1

>  <SCORE.INTER.POLAR>
-1.85359

>  <SCORE.INTER.REPUL>
0

>  <SCORE.INTER.ROT>
4

>  <SCORE.INTER.VDW>
-25.294

>  <SCORE.INTER.norm>
-1.00892

>  <SCORE.INTRA>
0.0938751

>  <SCORE.INTRA.DIHEDRAL>
1.12739

>  <SCORE.INTRA.DIHEDRAL.0>
2.53591

>  <SCORE.INTRA.POLAR>
0

>  <SCORE.INTRA.POLAR.0>
0

>  <SCORE.INTRA.REPUL>
0

>  <SCORE.INTRA.REPUL.0>
0

>  <SCORE.INTRA.VDW>
-0.469818

>  <SCORE.INTRA.VDW.0>
-0.684578

>  <SCORE.INTRA.norm>
0.00426705

>  <SCORE.RESTR>
0

>  <SCORE.RESTR.CAVITY>
0

>  <SCORE.RESTR.norm>
0

>  <SCORE.SYSTEM>
0

>  <SCORE.SYSTEM.CONST>
0

>  <SCORE.SYSTEM.DIHEDRAL>
0

>  <SCORE.SYSTEM.norm>
0

>  <SCORE.heavy>
22

>  <SCORE.norm>
-1.00465

$$$$
design_15
 OpenBabel05252019093D

 23 25  0  0  0  0  0  0  0  0999 V2000
   46.1861  -43.1628    8.3647 C   0  0  0  0  0  0  0  0  0  0  0  0
   45.0397  -44.0656    7.9960 C   0  0  0  0  0  0  0  0  0  0  0  0
   44.9466  -44.7964    6.8706 N   0  0  0  0  0  0  0  0  0  0  0  0
   43.7894  -45.4673    6.8983 N   0  0  0  0  0  0  0  0  0  0  0  0
   43.1335  -45.1743    8.0355 C   0  0  0  0  0  0  0  0  0  0  0  0
   41.8400  -45.7025    8.4364 C   0  0  0  0  0  0  0  0  0  0  0  0
   41.2767  -45.2165    9.5939 C   0  0  0  0  0  0  0  0  0  0  0  0
   40.0314  -45.7014   10.0121 C   0  0  0  0  0  0  0  0  0  0  0  0
   39.3564  -46.6700    9.2698 C   0  0  0  0  0  0  0  0  0  0  0  0
   39.9246  -47.1527    8.1125 C   0  0  0  0  0  0  0  0  0  0  0  0
   39.2115  -48.1875    7.3069 C   0  0  0  0  0  0  0  0  0  0  0  0
   38.5854  -47.6546    6.1443 N   0  0  0  0  0  0  0  0  0  0  0  0
   37.5406  -46.7006    6.2469 C   0  0  0  0  0  0  0  0  0  0  0  0
   37.1443  -46.3055    7.3716 O   0  0  0  0  0  0  0  0  0  0  0  0
   36.8815  -46.1374    5.0372 C   0  0  0  0  0  0  0  0  0  0  0  0
   35.8871  -45.0634    5.4015 C   0  0  0  0  0  0  0  0  0  0  0  0
   36.6114  -43.8943    5.8440 N   0  0  0  0  0  0  0  0  0  0  0  0
   36.0990  -42.6561    5.9575 C   0  0  0  0  0  0  0  0  0  0  0  0
   37.0471  -41.7939    6.3995 N   0  0  0  0  0  0  0  0  0  0  0  0
   38.1615  -42.5174    6.5599 C   0  0  0  0  0  0  0  0  0  0  0  0
   37.8731  -43.7841    6.2177 N   0  0  0  0  0  0  0  0  0  0  0  0
   41.1528  -46.6546    7.7273 C   0  0  0  0  0  0  0  0  0  0  0  0
   43.9249  -44.3110    8.6905 N   0  0  0  0  0  0  0  0  0  0  0  0
  1  2  1  0  0  0  0
  2  3  2  0  0  0  0
  3  4  1  0  0  0  0
  4  5  1  0  0  0  0
  5  6  1  0  0  0  0
  5 23  2  0  0  0  0
  6  7  2  0  0  0  0
  7  8  1  0  0  0  0
  8  9  2  0  0  0  0
  9 10  1  0  0  0  0
 10 11  1  0  0  0  0
 10 22  2  0  0  0  0
 11 12  1  0  0  0  0
 12 13  1  0  0  0  0
 13 14  2  0  0  0  0
 13 15  1  0  0  0  0
 15 16  1  0  0  0  0
 16 17  1  0  0  0  0
 17 18  1  0  0  0  0
 18 19  2  0  0  0  0
 19 20  1  0  0  0  0
 20 21  2  0  0  0  0
 21 17  1  0  0  0  0
 22  6  1  0  0  0  0
 23  2  1  0  0  0  0
M  END
>  <CHROM.1>
-175.46434764,102.91904218,-63.18998838,-175.22830022,71.38904207,163.93256227
40.04784364,-45.16290898,7.28809796,-0.03920862,-0.26061243,-0.22177482

>  <Name>
design_15

>  <RI>
0

>  <Rbt.Current_Directory>
/home/ziqiaoxu/icml18-jtnn/VAEdesign

>  <Rbt.Executable>
rbdock ($Id: //depot/dev/client3/rdock/2013.1/src/exe/rbdock.cxx#4 $)

>  <Rbt.Library>
libRbt.so (2013.1, Build901 2013/11/27)

>  <Rbt.Parameter_File>
/export/apps/rDock/src/rDock_2013.1_src//data/scripts/dock.prm

>  <Rbt.Receptor>
/home/ziqiaoxu/icml18-jtnn/VAEdesign/targets/RdRp-SARS-CoV-2/pocket_docking.prm

>  <SCORE>
-17.513

>  <SCORE.INTER>
-17.0801

>  <SCORE.INTER.CONST>
1

>  <SCORE.INTER.POLAR>
-0.938083

>  <SCORE.INTER.REPUL>
0

>  <SCORE.INTER.ROT>
6

>  <SCORE.INTER.VDW>
-25.2907

>  <SCORE.INTER.norm>
-0.742615

>  <SCORE.INTRA>
-0.432853

>  <SCORE.INTRA.DIHEDRAL>
0.589118

>  <SCORE.INTRA.DIHEDRAL.0>
5.41265

>  <SCORE.INTRA.POLAR>
0

>  <SCORE.INTRA.POLAR.0>
0

>  <SCORE.INTRA.REPUL>
0

>  <SCORE.INTRA.REPUL.0>
0

>  <SCORE.INTRA.VDW>
-0.727412

>  <SCORE.INTRA.VDW.0>
-0.13208

>  <SCORE.INTRA.norm>
-0.0188197

>  <SCORE.RESTR>
0

>  <SCORE.RESTR.CAVITY>
0

>  <SCORE.RESTR.norm>
0

>  <SCORE.SYSTEM>
0

>  <SCORE.SYSTEM.CONST>
0

>  <SCORE.SYSTEM.DIHEDRAL>
0

>  <SCORE.SYSTEM.norm>
0

>  <SCORE.heavy>
23

>  <SCORE.norm>
-0.761435

$$$$
design_16
 OpenBabel05252019093D

 24 26  0  0  0  0  0  0  0  0999 V2000
   44.3757  -44.0547   13.0897 C   0  0  0  0  0  0  0  0  0  0  0  0
   45.1079  -43.1378   12.1961 C   0  0  0  0  0  0  0  0  0  0  0  0
   45.6983  -42.0079   12.7080 C   0  0  0  0  0  0  0  0  0  0  0  0
   46.4003  -41.1294   11.9240 C   0  0  0  0  0  0  0  0  0  0  0  0
   46.5465  -41.3389   10.5778 C   0  0  0  0  0  0  0  0  0  0  0  0
   45.9370  -42.4946   10.0756 C   0  0  0  0  0  0  0  0  0  0  0  0
   46.2048  -42.7449    8.6124 C   0  0  0  0  0  0  0  0  0  0  0  0
   45.7942  -44.0465    8.2344 N   0  0  0  0  0  0  0  0  0  0  0  0
   44.5812  -44.3703    7.6017 C   0  0  0  0  0  0  0  0  0  0  0  0
   43.7385  -43.4318    7.3878 O   0  0  0  0  0  0  0  0  0  0  0  0
   44.2939  -45.7099    7.2298 N   0  0  0  0  0  0  0  0  0  0  0  0
   42.9692  -46.0344    6.8326 C   0  0  0  0  0  0  0  0  0  0  0  0
   41.8995  -45.8336    7.8277 C   0  0  0  0  0  0  0  0  0  0  0  0
   42.0489  -45.0623    8.9638 C   0  0  0  0  0  0  0  0  0  0  0  0
   41.1174  -45.1030    9.9839 C   0  0  0  0  0  0  0  0  0  0  0  0
   41.2030  -44.4259   11.0335 O   0  0  0  0  0  0  0  0  0  0  0  0
   40.0314  -45.9231    9.8612 N   0  0  0  0  0  0  0  0  0  0  0  0
   39.8564  -46.6894    8.7432 C   0  0  0  0  0  0  0  0  0  0  0  0
   38.7117  -47.4355    8.5971 C   0  0  0  0  0  0  0  0  0  0  0  0
   38.5178  -48.1221    7.4210 C   0  0  0  0  0  0  0  0  0  0  0  0
   39.4457  -48.0783    6.4068 C   0  0  0  0  0  0  0  0  0  0  0  0
   40.5993  -47.3353    6.5467 C   0  0  0  0  0  0  0  0  0  0  0  0
   40.7801  -46.6439    7.7421 C   0  0  0  0  0  0  0  0  0  0  0  0
   45.2399  -43.3734   10.8406 C   0  0  0  0  0  0  0  0  0  0  0  0
  1  2  1  0  0  0  0
  2  3  2  0  0  0  0
  3  4  1  0  0  0  0
  4  5  2  0  0  0  0
  5  6  1  0  0  0  0
  6  7  1  0  0  0  0
  6 24  2  0  0  0  0
  7  8  1  0  0  0  0
  8  9  1  0  0  0  0
  9 10  2  0  0  0  0
  9 11  1  0  0  0  0
 11 12  1  0  0  0  0
 12 13  1  0  0  0  0
 13 14  2  0  0  0  0
 14 15  1  0  0  0  0
 15 16  2  0  0  0  0
 15 17  1  0  0  0  0
 17 18  1  0  0  0  0
 18 19  2  0  0  0  0
 19 20  1  0  0  0  0
 20 21  2  0  0  0  0
 21 22  1  0  0  0  0
 22 23  2  0  0  0  0
 23 13  1  0  0  0  0
 23 18  1  0  0  0  0
 24  2  1  0  0  0  0
M  END
>  <CHROM.1>
168.26247333,98.49288927,-61.20796288,16.56299500,42.98672288,-44.76016850
9.19031555,0.60017782,0.51191309,1.23096888

>  <Name>
design_16

>  <RI>
0

>  <Rbt.Current_Directory>
/home/ziqiaoxu/icml18-jtnn/VAEdesign

>  <Rbt.Executable>
rbdock ($Id: //depot/dev/client3/rdock/2013.1/src/exe/rbdock.cxx#4 $)

>  <Rbt.Library>
libRbt.so (2013.1, Build901 2013/11/27)

>  <Rbt.Parameter_File>
/export/apps/rDock/src/rDock_2013.1_src//data/scripts/dock.prm

>  <Rbt.Receptor>
/home/ziqiaoxu/icml18-jtnn/VAEdesign/targets/RdRp-SARS-CoV-2/pocket_docking.prm

>  <SCORE>
-23.4239

>  <SCORE.INTER>
-23.0903

>  <SCORE.INTER.CONST>
1

>  <SCORE.INTER.POLAR>
-2.77379

>  <SCORE.INTER.REPUL>
0.446251

>  <SCORE.INTER.ROT>
4

>  <SCORE.INTER.VDW>
-25.2906

>  <SCORE.INTER.norm>
-0.962094

>  <SCORE.INTRA>
-0.333662

>  <SCORE.INTRA.DIHEDRAL>
-0.243845

>  <SCORE.INTRA.DIHEDRAL.0>
3.77546

>  <SCORE.INTRA.POLAR>
0

>  <SCORE.INTRA.POLAR.0>
0

>  <SCORE.INTRA.REPUL>
0

>  <SCORE.INTRA.REPUL.0>
0

>  <SCORE.INTRA.VDW>
-0.211739

>  <SCORE.INTRA.VDW.0>
-1.09465

>  <SCORE.INTRA.norm>
-0.0139026

>  <SCORE.RESTR>
0

>  <SCORE.RESTR.CAVITY>
0

>  <SCORE.RESTR.norm>
0

>  <SCORE.SYSTEM>
0

>  <SCORE.SYSTEM.CONST>
0

>  <SCORE.SYSTEM.DIHEDRAL>
0

>  <SCORE.SYSTEM.norm>
0

>  <SCORE.heavy>
24

>  <SCORE.norm>
-0.975997

$$$$
design_7
 OpenBabel05252019093D

 25 27  0  0  0  0  0  0  0  0999 V2000
   40.1102  -46.3684   10.3604 N   0  0  0  0  0  0  0  0  0  0  0  0
   40.8255  -46.0784    9.1320 C   0  0  0  0  0  0  0  0  0  0  0  0
   41.7304  -45.2625    9.2635 O   0  0  0  0  0  0  0  0  0  0  0  0
   40.4342  -46.7436    7.9052 C   0  0  0  0  0  0  0  0  0  0  0  0
   39.3053  -47.5971    7.9953 C   0  0  0  0  0  0  0  0  0  0  0  0
   38.7980  -48.2460    6.9118 C   0  0  0  0  0  0  0  0  0  0  0  0
   39.4277  -48.0410    5.7139 C   0  0  0  0  0  0  0  0  0  0  0  0
   40.5249  -47.2246    5.5765 C   0  0  0  0  0  0  0  0  0  0  0  0
   41.0546  -46.5539    6.6829 C   0  0  0  0  0  0  0  0  0  0  0  0
   42.2187  -45.7675    6.5678 N   0  0  0  0  0  0  0  0  0  0  0  0
   42.9125  -45.4068    5.3959 C   0  0  0  0  0  0  0  0  0  0  0  0
   42.6340  -45.7065    4.2225 O   0  0  0  0  0  0  0  0  0  0  0  0
   44.1533  -44.5512    5.5361 C   0  0  0  0  0  0  0  0  0  0  0  0
   45.3795  -45.4054    5.5939 C   0  0  0  0  0  0  0  0  0  0  0  0
   45.8387  -45.8539    4.2744 C   0  0  0  0  0  0  0  0  0  0  0  0
   44.9815  -45.7540    3.2431 N   0  0  0  0  0  0  0  0  0  0  0  0
   45.3197  -46.1412    2.0016 C   0  0  0  0  0  0  0  0  0  0  0  0
   44.4553  -46.0471    0.9306 C   0  0  0  0  0  0  0  0  0  0  0  0
   44.7830  -46.4383   -0.3486 C   0  0  0  0  0  0  0  0  0  0  0  0
   46.0386  -46.9551   -0.5937 C   0  0  0  0  0  0  0  0  0  0  0  0
   46.9215  -47.0597    0.4603 C   0  0  0  0  0  0  0  0  0  0  0  0
   46.5820  -46.6648    1.7358 C   0  0  0  0  0  0  0  0  0  0  0  0
   47.4278  -46.7502    2.8156 C   0  0  0  0  0  0  0  0  0  0  0  0
   48.5820  -47.2243    2.5947 O   0  0  0  0  0  0  0  0  0  0  0  0
   47.0576  -46.3550    4.0386 N   0  0  0  0  0  0  0  0  0  0  0  0
  1  2  1  0  0  0  0
  2  3  2  0  0  0  0
  2  4  1  0  0  0  0
  4  5  2  0  0  0  0
  5  6  1  0  0  0  0
  6  7  2  0  0  0  0
  7  8  1  0  0  0  0
  8  9  2  0  0  0  0
  9 10  1  0  0  0  0
  9  4  1  0  0  0  0
 10 11  1  0  0  0  0
 11 12  2  0  0  0  0
 11 13  1  0  0  0  0
 13 14  1  0  0  0  0
 14 15  1  0  0  0  0
 15 16  2  0  0  0  0
 16 17  1  0  0  0  0
 17 18  2  0  0  0  0
 18 19  1  0  0  0  0
 19 20  2  0  0  0  0
 20 21  1  0  0  0  0
 21 22  2  0  0  0  0
 22 23  1  0  0  0  0
 22 17  1  0  0  0  0
 23 24  2  0  0  0  0
 23 25  1  0  0  0  0
 25 15  1  0  0  0  0
M  END
>  <CHROM.1>
3.24210211,-175.38400143,94.10428071,80.66602826,-16.03427891,43.51137251
-46.38673695,4.79658040,-2.35704261,-0.25314878,-1.79844522

>  <Name>
design_7

>  <RI>
0

>  <Rbt.Current_Directory>
/home/ziqiaoxu/icml18-jtnn/VAEdesign

>  <Rbt.Executable>
rbdock ($Id: //depot/dev/client3/rdock/2013.1/src/exe/rbdock.cxx#4 $)

>  <Rbt.Library>
libRbt.so (2013.1, Build901 2013/11/27)

>  <Rbt.Parameter_File>
/export/apps/rDock/src/rDock_2013.1_src//data/scripts/dock.prm

>  <Rbt.Receptor>
/home/ziqiaoxu/icml18-jtnn/VAEdesign/targets/RdRp-SARS-CoV-2/pocket_docking.prm

>  <SCORE>
-22.7639

>  <SCORE.INTER>
-22.2677

>  <SCORE.INTER.CONST>
1

>  <SCORE.INTER.POLAR>
-2.19204

>  <SCORE.INTER.REPUL>
0.0150151

>  <SCORE.INTER.ROT>
5

>  <SCORE.INTER.VDW>
-25.2898

>  <SCORE.INTER.norm>
-0.890708

>  <SCORE.INTRA>
-0.496173

>  <SCORE.INTRA.DIHEDRAL>
1.90417

>  <SCORE.INTRA.DIHEDRAL.0>
2.62356

>  <SCORE.INTRA.POLAR>
0

>  <SCORE.INTRA.POLAR.0>
0

>  <SCORE.INTRA.REPUL>
0

>  <SCORE.INTRA.REPUL.0>
0

>  <SCORE.INTRA.VDW>
-1.44826

>  <SCORE.INTRA.VDW.0>
0.836961

>  <SCORE.INTRA.norm>
-0.0198469

>  <SCORE.RESTR>
0

>  <SCORE.RESTR.CAVITY>
0

>  <SCORE.RESTR.norm>
0

>  <SCORE.SYSTEM>
0

>  <SCORE.SYSTEM.CONST>
0

>  <SCORE.SYSTEM.DIHEDRAL>
0

>  <SCORE.SYSTEM.norm>
0

>  <SCORE.heavy>
25

>  <SCORE.norm>
-0.910555

$$$$
design_10
 OpenBabel05252019093D

 21 22  0  0  0  0  0  0  0  0999 V2000
   40.0228  -38.2332    5.8048 C   0  0  0  0  0  0  0  0  0  0  0  0
   39.9538  -39.0756    7.0246 C   0  0  0  0  0  0  0  0  0  0  0  0
   40.6677  -38.8793    8.1891 C   0  0  0  0  0  0  0  0  0  0  0  0
   40.5190  -39.6943    9.3004 C   0  0  0  0  0  0  0  0  0  0  0  0
   39.6614  -40.7312    9.3089 C   0  0  0  0  0  0  0  0  0  0  0  0
   39.3055  -41.8867   10.5498 S   0  0  0  0  0  0  0  0  0  0  0  0
   37.8876  -41.5546   11.0452 O   0  0  0  0  0  0  0  0  0  0  0  0
   40.3145  -41.5382   11.6678 O   0  0  0  0  0  0  0  0  0  0  0  0
   39.4086  -43.4382    9.9976 N   0  0  0  0  0  0  0  0  0  0  0  0
   40.6079  -44.0839    9.5725 C   0  0  1  0  0  0  0  0  0  0  0  0
   41.3573  -44.4097   10.9205 C   0  0  0  0  0  0  0  0  0  0  0  0
   40.2720  -45.3663    8.9338 C   0  0  0  0  0  0  0  0  0  0  0  0
   39.0618  -45.9974    9.2161 C   0  0  0  0  0  0  0  0  0  0  0  0
   38.6970  -47.1907    8.5853 C   0  0  0  0  0  0  0  0  0  0  0  0
   39.5942  -47.7146    7.6759 C   0  0  0  0  0  0  0  0  0  0  0  0
   39.1808  -49.2400    6.8918 Cl  0  0  0  0  0  0  0  0  0  0  0  0
   40.8256  -47.0980    7.3668 C   0  0  0  0  0  0  0  0  0  0  0  0
   41.1615  -45.9328    7.9890 C   0  0  0  0  0  0  0  0  0  0  0  0
   42.6602  -45.1006    7.6837 Cl  0  0  0  0  0  0  0  0  0  0  0  0
   38.9351  -40.9220    8.1016 C   0  0  0  0  0  0  0  0  0  0  0  0
   39.0783  -40.1302    7.0147 C   0  0  0  0  0  0  0  0  0  0  0  0
  1  2  1  0  0  0  0
  2  3  2  0  0  0  0
  3  4  1  0  0  0  0
  4  5  2  0  0  0  0
  5  6  1  0  0  0  0
  5 20  1  0  0  0  0
  6  7  2  0  0  0  0
  6  8  2  0  0  0  0
  6  9  1  0  0  0  0
  9 10  1  0  0  0  0
 10 11  1  1  0  0  0
 10 12  1  0  0  0  0
 12 13  2  0  0  0  0
 13 14  1  0  0  0  0
 14 15  2  0  0  0  0
 15 16  1  0  0  0  0
 15 17  1  0  0  0  0
 17 18  2  0  0  0  0
 18 19  1  0  0  0  0
 18 12  1  0  0  0  0
 20 21  2  0  0  0  0
 21  2  1  0  0  0  0
M  END
>  <CHROM.1>
109.48878838,66.59862053,75.39568956,-22.40646892,40.03586268,-43.62758570
8.68259502,-1.68447398,-1.29981132,-3.11976442

>  <Name>
design_10

>  <RI>
0

>  <Rbt.Current_Directory>
/home/ziqiaoxu/icml18-jtnn/VAEdesign

>  <Rbt.Executable>
rbdock ($Id: //depot/dev/client3/rdock/2013.1/src/exe/rbdock.cxx#4 $)

>  <Rbt.Library>
libRbt.so (2013.1, Build901 2013/11/27)

>  <Rbt.Parameter_File>
/export/apps/rDock/src/rDock_2013.1_src//data/scripts/dock.prm

>  <Rbt.Receptor>
/home/ziqiaoxu/icml18-jtnn/VAEdesign/targets/RdRp-SARS-CoV-2/pocket_docking.prm

>  <SCORE>
-22.6846

>  <SCORE.INTER>
-18.8122

>  <SCORE.INTER.CONST>
1

>  <SCORE.INTER.POLAR>
-1.04541

>  <SCORE.INTER.REPUL>
0.126315

>  <SCORE.INTER.ROT>
4

>  <SCORE.INTER.VDW>
-25.2893

>  <SCORE.INTER.norm>
-0.895818

>  <SCORE.INTRA>
-4.3377

>  <SCORE.INTRA.DIHEDRAL>
-3.78205

>  <SCORE.INTRA.DIHEDRAL.0>
6.24408

>  <SCORE.INTRA.POLAR>
0

>  <SCORE.INTRA.POLAR.0>
0

>  <SCORE.INTRA.REPUL>
0

>  <SCORE.INTRA.REPUL.0>
0

>  <SCORE.INTRA.VDW>
-2.44668

>  <SCORE.INTRA.VDW.0>
1.90016

>  <SCORE.INTRA.norm>
-0.206557

>  <SCORE.RESTR>
0.46526

>  <SCORE.RESTR.CAVITY>
0.46526

>  <SCORE.RESTR.norm>
0.0221552

>  <SCORE.SYSTEM>
0

>  <SCORE.SYSTEM.CONST>
0

>  <SCORE.SYSTEM.DIHEDRAL>
0

>  <SCORE.SYSTEM.norm>
0

>  <SCORE.heavy>
21

>  <SCORE.norm>
-1.08022

$$$$
design_1
 OpenBabel05252019093D

 25 27  0  0  0  0  0  0  0  0999 V2000
   43.4242  -38.8069    0.0497 N   0  0  0  0  0  0  0  0  0  0  0  0
   42.2418  -39.2884    1.2040 S   0  0  0  0  0  0  0  0  0  0  0  0
   40.8810  -38.9010    0.6981 O   0  0  0  0  0  0  0  0  0  0  0  0
   42.4332  -38.5339    2.5031 O   0  0  0  0  0  0  0  0  0  0  0  0
   42.3163  -41.0142    1.4732 C   0  0  0  0  0  0  0  0  0  0  0  0
   41.9083  -41.5436    2.6930 C   0  0  0  0  0  0  0  0  0  0  0  0
   41.9961  -42.9055    2.8445 C   0  0  0  0  0  0  0  0  0  0  0  0
   42.4590  -43.7516    1.8667 C   0  0  0  0  0  0  0  0  0  0  0  0
   42.5409  -45.2309    2.0464 C   0  0  0  0  0  0  0  0  0  0  0  0
   43.1128  -45.5965    3.3855 C   0  0  0  0  0  0  0  0  0  0  0  0
   42.1149  -46.2681    4.1768 N   0  0  0  0  0  0  0  0  0  0  0  0
   42.0745  -46.1295    5.5783 C   0  0  0  0  0  0  0  0  0  0  0  0
   42.8907  -45.4280    6.2457 O   0  0  0  0  0  0  0  0  0  0  0  0
   41.0374  -46.8406    6.3249 C   0  0  0  0  0  0  0  0  0  0  0  0
   40.2651  -47.8065    5.6599 C   0  0  0  0  0  0  0  0  0  0  0  0
   39.2099  -48.4502    6.2438 C   0  0  0  0  0  0  0  0  0  0  0  0
   38.9258  -48.1035    7.5490 C   0  0  0  0  0  0  0  0  0  0  0  0
   39.6681  -47.1640    8.2205 C   0  0  0  0  0  0  0  0  0  0  0  0
   39.3798  -46.8741    9.4941 N   0  0  0  0  0  0  0  0  0  0  0  0
   40.0852  -45.9894   10.2059 C   0  0  0  0  0  0  0  0  0  0  0  0
   41.1572  -45.3286    9.6465 C   0  0  0  0  0  0  0  0  0  0  0  0
   41.4953  -45.5907    8.3360 C   0  0  0  0  0  0  0  0  0  0  0  0
   40.7510  -46.5057    7.6194 C   0  0  0  0  0  0  0  0  0  0  0  0
   42.8546  -43.2019    0.6746 C   0  0  0  0  0  0  0  0  0  0  0  0
   42.7877  -41.8346    0.4664 C   0  0  0  0  0  0  0  0  0  0  0  0
  1  2  1  0  0  0  0
  2  3  2  0  0  0  0
  2  4  2  0  0  0  0
  2  5  1  0  0  0  0
  5  6  2  0  0  0  0
  6  7  1  0  0  0  0
  7  8  2  0  0  0  0
  8  9  1  0  0  0  0
  8 24  1  0  0  0  0
  9 10  1  0  0  0  0
 10 11  1  0  0  0  0
 11 12  1  0  0  0  0
 12 13  2  0  0  0  0
 12 14  1  0  0  0  0
 14 15  2  0  0  0  0
 15 16  1  0  0  0  0
 16 17  2  0  0  0  0
 17 18  1  0  0  0  0
 18 19  2  0  0  0  0
 19 20  1  0  0  0  0
 20 21  2  0  0  0  0
 21 22  1  0  0  0  0
 22 23  2  0  0  0  0
 23 14  1  0  0  0  0
 23 18  1  0  0  0  0
 24 25  2  0  0  0  0
 25  5  1  0  0  0  0
M  END
>  <CHROM.1>
-56.95922542,152.70762674,-44.38158451,114.68044488,-147.26394747,10.64482488
41.59620505,-43.89799044,4.33813066,0.76687352,1.27772588,0.00085813

>  <Name>
design_1

>  <RI>
0

>  <Rbt.Current_Directory>
/home/ziqiaoxu/icml18-jtnn/VAEdesign

>  <Rbt.Executable>
rbdock ($Id: //depot/dev/client3/rdock/2013.1/src/exe/rbdock.cxx#4 $)

>  <Rbt.Library>
libRbt.so (2013.1, Build901 2013/11/27)

>  <Rbt.Parameter_File>
/export/apps/rDock/src/rDock_2013.1_src//data/scripts/dock.prm

>  <Rbt.Receptor>
/home/ziqiaoxu/icml18-jtnn/VAEdesign/targets/RdRp-SARS-CoV-2/pocket_docking.prm

>  <SCORE>
-19.6364

>  <SCORE.INTER>
-20.5957

>  <SCORE.INTER.CONST>
1

>  <SCORE.INTER.POLAR>
-1.9737

>  <SCORE.INTER.REPUL>
0

>  <SCORE.INTER.ROT>
6

>  <SCORE.INTER.VDW>
-25.2851

>  <SCORE.INTER.norm>
-0.823827

>  <SCORE.INTRA>
0.959284

>  <SCORE.INTRA.DIHEDRAL>
-3.84066

>  <SCORE.INTRA.DIHEDRAL.0>
13.0689

>  <SCORE.INTRA.POLAR>
0

>  <SCORE.INTRA.POLAR.0>
0

>  <SCORE.INTRA.REPUL>
0

>  <SCORE.INTRA.REPUL.0>
0

>  <SCORE.INTRA.VDW>
2.87961

>  <SCORE.INTRA.VDW.0>
-1.87451

>  <SCORE.INTRA.norm>
0.0383714

>  <SCORE.RESTR>
0

>  <SCORE.RESTR.CAVITY>
0

>  <SCORE.RESTR.norm>
0

>  <SCORE.SYSTEM>
0

>  <SCORE.SYSTEM.CONST>
0

>  <SCORE.SYSTEM.DIHEDRAL>
0

>  <SCORE.SYSTEM.norm>
0

>  <SCORE.heavy>
25

>  <SCORE.norm>
-0.785455

$$$$
design_17
 OpenBabel05252019093D

 25 27  0  0  0  0  0  0  0  0999 V2000
   39.6726  -43.7955    9.6980 C   0  0  0  0  0  0  0  0  0  0  0  0
   40.0524  -45.2549    9.8967 C   0  0  0  0  0  0  0  0  0  0  0  0
   40.8076  -45.7546    8.7604 N   0  0  0  0  0  0  0  0  0  0  0  0
   42.1360  -45.3201    8.5478 C   0  0  0  0  0  0  0  0  0  0  0  0
   42.6510  -44.5188    9.3549 O   0  0  0  0  0  0  0  0  0  0  0  0
   42.8893  -45.8237    7.3708 C   0  0  0  0  0  0  0  0  0  0  0  0
   44.0320  -44.8846    7.0290 C   0  0  0  0  0  0  0  0  0  0  0  0
   44.8943  -45.4753    6.0112 N   0  0  0  0  0  0  0  0  0  0  0  0
   44.6152  -45.2999    4.6431 C   0  0  0  0  0  0  0  0  0  0  0  0
   43.6207  -44.6280    4.2965 O   0  0  0  0  0  0  0  0  0  0  0  0
   45.4677  -45.8883    3.6407 C   0  0  0  0  0  0  0  0  0  0  0  0
   45.1301  -46.0551    2.3166 C   0  0  0  0  0  0  0  0  0  0  0  0
   45.9621  -46.6243    1.4111 C   0  0  0  0  0  0  0  0  0  0  0  0
   47.2319  -47.0869    1.7595 C   0  0  0  0  0  0  0  0  0  0  0  0
   48.1536  -47.6722    0.9540 C   0  0  0  0  0  0  0  0  0  0  0  0
   49.3085  -48.0382    1.5069 N   0  0  0  0  0  0  0  0  0  0  0  0
   49.1548  -47.5927    3.1183 S   0  0  0  0  0  0  0  0  0  0  0  0
   47.5867  -46.9307    3.0697 C   0  0  0  0  0  0  0  0  0  0  0  0
   46.7175  -46.3384    4.0047 C   0  0  0  0  0  0  0  0  0  0  0  0
   40.2428  -46.6801    7.8370 C   0  0  0  0  0  0  0  0  0  0  0  0
   40.3729  -46.5194    6.4778 C   0  0  0  0  0  0  0  0  0  0  0  0
   39.8100  -47.4374    5.6233 C   0  0  0  0  0  0  0  0  0  0  0  0
   39.1024  -48.5403    6.0928 C   0  0  0  0  0  0  0  0  0  0  0  0
   38.9660  -48.7110    7.4509 C   0  0  0  0  0  0  0  0  0  0  0  0
   39.5321  -47.7883    8.2937 C   0  0  0  0  0  0  0  0  0  0  0  0
  1  2  1  0  0  0  0
  2  3  1  0  0  0  0
  3  4  1  0  0  0  0
  3 20  1  0  0  0  0
  4  5  2  0  0  0  0
  4  6  1  0  0  0  0
  6  7  1  0  0  0  0
  7  8  1  0  0  0  0
  8  9  1  0  0  0  0
  9 10  2  0  0  0  0
  9 11  1  0  0  0  0
 11 12  2  0  0  0  0
 12 13  1  0  0  0  0
 13 14  2  0  0  0  0
 14 15  1  0  0  0  0
 15 16  2  0  0  0  0
 16 17  1  0  0  0  0
 17 18  1  0  0  0  0
 18 19  2  0  0  0  0
 18 14  1  0  0  0  0
 19 11  1  0  0  0  0
 20 21  2  0  0  0  0
 21 22  1  0  0  0  0
 22 23  2  0  0  0  0
 23 24  1  0  0  0  0
 24 25  2  0  0  0  0
 25 20  1  0  0  0  0
M  END
>  <CHROM.1>
71.33134604,158.52813489,171.25566055,87.66825259,163.71266039,134.33180338
43.79010641,-46.36245857,5.51338760,-2.56061410,-0.35478112,-2.22557475

>  <Name>
design_17

>  <RI>
0

>  <Rbt.Current_Directory>
/home/ziqiaoxu/icml18-jtnn/VAEdesign

>  <Rbt.Executable>
rbdock ($Id: //depot/dev/client3/rdock/2013.1/src/exe/rbdock.cxx#4 $)

>  <Rbt.Library>
libRbt.so (2013.1, Build901 2013/11/27)

>  <Rbt.Parameter_File>
/export/apps/rDock/src/rDock_2013.1_src//data/scripts/dock.prm

>  <Rbt.Receptor>
/home/ziqiaoxu/icml18-jtnn/VAEdesign/targets/RdRp-SARS-CoV-2/pocket_docking.prm

>  <SCORE>
-17.0271

>  <SCORE.INTER>
-16.9258

>  <SCORE.INTER.CONST>
1

>  <SCORE.INTER.POLAR>
-0.894427

>  <SCORE.INTER.REPUL>
0

>  <SCORE.INTER.ROT>
6

>  <SCORE.INTER.VDW>
-25.2847

>  <SCORE.INTER.norm>
-0.677031

>  <SCORE.INTRA>
-0.101273

>  <SCORE.INTRA.DIHEDRAL>
-5.62401

>  <SCORE.INTRA.DIHEDRAL.0>
17.3768

>  <SCORE.INTRA.POLAR>
0

>  <SCORE.INTRA.POLAR.0>
0

>  <SCORE.INTRA.REPUL>
0

>  <SCORE.INTRA.REPUL.0>
0

>  <SCORE.INTRA.VDW>
2.71073

>  <SCORE.INTRA.VDW.0>
-0.819328

>  <SCORE.INTRA.norm>
-0.00405093

>  <SCORE.RESTR>
0

>  <SCORE.RESTR.CAVITY>
0

>  <SCORE.RESTR.norm>
0

>  <SCORE.SYSTEM>
0

>  <SCORE.SYSTEM.CONST>
0

>  <SCORE.SYSTEM.DIHEDRAL>
0

>  <SCORE.SYSTEM.norm>
0

>  <SCORE.heavy>
25

>  <SCORE.norm>
-0.681082

$$$$
design_8
 OpenBabel05252019093D

 22 24  0  0  0  0  0  0  0  0999 V2000
   38.8661  -48.8349    6.8609 C   0  0  0  0  0  0  0  0  0  0  0  0
   39.6255  -47.7546    7.6208 C   0  0  0  0  0  0  0  0  0  0  0  0
   39.1106  -47.2703    8.8025 C   0  0  0  0  0  0  0  0  0  0  0  0
   40.2896  -46.1183    9.2478 S   0  0  0  0  0  0  0  0  0  0  0  0
   41.3515  -46.3190    7.9232 C   0  0  0  0  0  0  0  0  0  0  0  0
   42.6300  -45.6214    7.6374 C   0  0  0  0  0  0  0  0  0  0  0  0
   43.1662  -44.7908    8.5890 C   0  0  0  0  0  0  0  0  0  0  0  0
   44.3674  -44.1119    8.3674 C   0  0  0  0  0  0  0  0  0  0  0  0
   44.9708  -44.3297    7.1432 C   0  0  0  0  0  0  0  0  0  0  0  0
   44.4437  -45.1615    6.1773 C   0  0  0  0  0  0  0  0  0  0  0  0
   45.1708  -45.3248    4.8995 C   0  0  0  0  0  0  0  0  0  0  0  0
   44.3115  -44.8249    3.7911 C   0  0  0  0  0  0  0  0  0  0  0  0
   44.2299  -43.5683    3.5823 O   0  0  0  0  0  0  0  0  0  0  0  0
   43.5718  -45.6716    2.9459 N   0  0  0  0  0  0  0  0  0  0  0  0
   42.7581  -45.1386    1.8910 C   0  0  0  0  0  0  0  0  0  0  0  0
   43.4783  -45.1676    0.5511 C   0  0  1  0  0  0  0  0  0  0  0  0
   44.7020  -44.3140    0.5403 C   0  0  0  0  0  0  0  0  0  0  0  0
   45.5662  -45.0577   -0.4846 C   0  0  0  0  0  0  0  0  0  0  0  0
   45.1184  -46.4882   -0.2082 C   0  0  0  0  0  0  0  0  0  0  0  0
   43.8030  -46.4335    0.1552 O   0  0  0  0  0  0  0  0  0  0  0  0
   43.2513  -45.8095    6.4490 C   0  0  0  0  0  0  0  0  0  0  0  0
   40.7478  -47.2551    7.2127 N   0  0  0  0  0  0  0  0  0  0  0  0
  1  2  1  0  0  0  0
  2  3  2  0  0  0  0
  3  4  1  0  0  0  0
  4  5  1  0  0  0  0
  5  6  1  0  0  0  0
  5 22  2  0  0  0  0
  6  7  2  0  0  0  0
  7  8  1  0  0  0  0
  8  9  2  0  0  0  0
  9 10  1  0  0  0  0
 10 11  1  0  0  0  0
 10 21  2  0  0  0  0
 11 12  1  0  0  0  0
 12 13  2  0  0  0  0
 12 14  1  0  0  0  0
 14 15  1  0  0  0  0
 16 15  1  1  0  0  0
 16 17  1  0  0  0  0
 17 18  1  0  0  0  0
 18 19  1  0  0  0  0
 19 20  1  0  0  0  0
 20 16  1  0  0  0  0
 21  6  1  0  0  0  0
 22  2  1  0  0  0  0
M  END
>  <CHROM.1>
7.79905567,-117.56763845,79.07529681,97.20385235,-62.94202552,42.84199318
-45.72781498,5.10585338,2.14439804,0.60806804,1.38622547

>  <Name>
design_8

>  <RI>
0

>  <Rbt.Current_Directory>
/home/ziqiaoxu/icml18-jtnn/VAEdesign

>  <Rbt.Executable>
rbdock ($Id: //depot/dev/client3/rdock/2013.1/src/exe/rbdock.cxx#4 $)

>  <Rbt.Library>
libRbt.so (2013.1, Build901 2013/11/27)

>  <Rbt.Parameter_File>
/export/apps/rDock/src/rDock_2013.1_src//data/scripts/dock.prm

>  <Rbt.Receptor>
/home/ziqiaoxu/icml18-jtnn/VAEdesign/targets/RdRp-SARS-CoV-2/pocket_docking.prm

>  <SCORE>
-19.2051

>  <SCORE.INTER>
-18.145

>  <SCORE.INTER.CONST>
1

>  <SCORE.INTER.POLAR>
-0.959166

>  <SCORE.INTER.REPUL>
0

>  <SCORE.INTER.ROT>
5

>  <SCORE.INTER.VDW>
-25.2839

>  <SCORE.INTER.norm>
-0.824775

>  <SCORE.INTRA>
-1.0601

>  <SCORE.INTRA.DIHEDRAL>
0.197053

>  <SCORE.INTRA.DIHEDRAL.0>
3.37719

>  <SCORE.INTRA.POLAR>
0

>  <SCORE.INTRA.POLAR.0>
0

>  <SCORE.INTRA.REPUL>
0

>  <SCORE.INTRA.REPUL.0>
0

>  <SCORE.INTRA.VDW>
-1.15862

>  <SCORE.INTRA.VDW.0>
-1.295

>  <SCORE.INTRA.norm>
-0.0481862

>  <SCORE.RESTR>
0

>  <SCORE.RESTR.CAVITY>
0

>  <SCORE.RESTR.norm>
0

>  <SCORE.SYSTEM>
0

>  <SCORE.SYSTEM.CONST>
0

>  <SCORE.SYSTEM.DIHEDRAL>
0

>  <SCORE.SYSTEM.norm>
0

>  <SCORE.heavy>
22

>  <SCORE.norm>
-0.872961

$$$$
design_15
 OpenBabel05252019093D

 25 27  0  0  0  0  0  0  0  0999 V2000
   40.1514  -46.2318   10.4554 N   0  0  0  0  0  0  0  0  0  0  0  0
   40.7448  -45.8389    9.2370 C   0  0  0  0  0  0  0  0  0  0  0  0
   41.4964  -44.8371    9.2296 O   0  0  0  0  0  0  0  0  0  0  0  0
   40.4940  -46.5763    8.0111 C   0  0  0  0  0  0  0  0  0  0  0  0
   39.6267  -47.6329    8.0274 C   0  0  0  0  0  0  0  0  0  0  0  0
   39.3636  -48.3561    6.8843 C   0  0  0  0  0  0  0  0  0  0  0  0
   39.9818  -48.0107    5.7110 C   0  0  0  0  0  0  0  0  0  0  0  0
   40.8772  -46.9392    5.6405 C   0  0  0  0  0  0  0  0  0  0  0  0
   41.4624  -46.6573    4.3922 N   0  0  0  0  0  0  0  0  0  0  0  0
   42.3939  -45.6637    4.0743 C   0  0  0  0  0  0  0  0  0  0  0  0
   42.8610  -44.8456    4.8953 O   0  0  0  0  0  0  0  0  0  0  0  0
   42.9149  -45.5118    2.6574 C   0  0  0  0  0  0  0  0  0  0  0  0
   41.9792  -44.7071    1.8416 C   0  0  0  0  0  0  0  0  0  0  0  0
   42.5547  -43.5078    1.2436 C   0  0  0  0  0  0  0  0  0  0  0  0
   43.7813  -43.5974    0.6854 N   0  0  0  0  0  0  0  0  0  0  0  0
   44.3658  -42.5222    0.1167 C   0  0  0  0  0  0  0  0  0  0  0  0
   45.6210  -42.5941   -0.4599 C   0  0  0  0  0  0  0  0  0  0  0  0
   46.2077  -41.4891   -1.0376 C   0  0  0  0  0  0  0  0  0  0  0  0
   45.5363  -40.2842   -1.0450 C   0  0  0  0  0  0  0  0  0  0  0  0
   44.2847  -40.2304   -0.4652 C   0  0  0  0  0  0  0  0  0  0  0  0
   43.6796  -41.3195    0.1171 C   0  0  0  0  0  0  0  0  0  0  0  0
   42.4173  -41.2248    0.6908 C   0  0  0  0  0  0  0  0  0  0  0  0
   41.7849  -40.1372    0.6967 O   0  0  0  0  0  0  0  0  0  0  0  0
   41.8844  -42.3335    1.2440 N   0  0  0  0  0  0  0  0  0  0  0  0
   41.1128  -46.2419    6.8043 C   0  0  0  0  0  0  0  0  0  0  0  0
  1  2  1  0  0  0  0
  2  3  2  0  0  0  0
  2  4  1  0  0  0  0
  4  5  2  0  0  0  0
  5  6  1  0  0  0  0
  6  7  2  0  0  0  0
  7  8  1  0  0  0  0
  8  9  1  0  0  0  0
  8 25  2  0  0  0  0
  9 10  1  0  0  0  0
 10 11  2  0  0  0  0
 10 12  1  0  0  0  0
 12 13  1  0  0  0  0
 13 14  1  0  0  0  0
 14 15  2  0  0  0  0
 15 16  1  0  0  0  0
 16 17  2  0  0  0  0
 17 18  1  0  0  0  0
 18 19  2  0  0  0  0
 19 20  1  0  0  0  0
 20 21  2  0  0  0  0
 21 22  1  0  0  0  0
 21 16  1  0  0  0  0
 22 23  2  0  0  0  0
 22 24  1  0  0  0  0
 24 14  1  0  0  0  0
 25  4  1  0  0  0  0
M  END
>  <CHROM.1>
2.74697424,-178.83508858,83.58664628,122.17399781,43.03838727,42.27257763
-44.29246279,3.65793554,-3.03041714,-1.20211782,-2.45204628

>  <Name>
design_15

>  <RI>
0

>  <Rbt.Current_Directory>
/home/ziqiaoxu/icml18-jtnn/VAEdesign

>  <Rbt.Executable>
rbdock ($Id: //depot/dev/client3/rdock/2013.1/src/exe/rbdock.cxx#4 $)

>  <Rbt.Library>
libRbt.so (2013.1, Build901 2013/11/27)

>  <Rbt.Parameter_File>
/export/apps/rDock/src/rDock_2013.1_src//data/scripts/dock.prm

>  <Rbt.Receptor>
/home/ziqiaoxu/icml18-jtnn/VAEdesign/targets/RdRp-SARS-CoV-2/pocket_docking.prm

>  <SCORE>
-29.639

>  <SCORE.INTER>
-28.6116

>  <SCORE.INTER.CONST>
1

>  <SCORE.INTER.POLAR>
-4.12349

>  <SCORE.INTER.REPUL>
0.0582309

>  <SCORE.INTER.ROT>
5

>  <SCORE.INTER.VDW>
-25.2829

>  <SCORE.INTER.norm>
-1.14446

>  <SCORE.INTRA>
-1.02745

>  <SCORE.INTRA.DIHEDRAL>
6.08192

>  <SCORE.INTRA.DIHEDRAL.0>
1.82531

>  <SCORE.INTRA.POLAR>
0

>  <SCORE.INTRA.POLAR.0>
0

>  <SCORE.INTRA.REPUL>
0

>  <SCORE.INTRA.REPUL.0>
0

>  <SCORE.INTRA.VDW>
-4.06841

>  <SCORE.INTRA.VDW.0>
3.09113

>  <SCORE.INTRA.norm>
-0.041098

>  <SCORE.RESTR>
0

>  <SCORE.RESTR.CAVITY>
0

>  <SCORE.RESTR.norm>
0

>  <SCORE.SYSTEM>
0

>  <SCORE.SYSTEM.CONST>
0

>  <SCORE.SYSTEM.DIHEDRAL>
0

>  <SCORE.SYSTEM.norm>
0

>  <SCORE.heavy>
25

>  <SCORE.norm>
-1.18556

$$$$
design_10
 OpenBabel05252019093D

 25 26  0  0  0  0  0  0  0  0999 V2000
   45.0188  -39.4152   -0.9344 C   0  0  0  0  0  0  0  0  0  0  0  0
   43.8793  -39.8284   -0.0337 C   0  0  0  0  0  0  0  0  0  0  0  0
   43.0217  -38.8618    0.4659 C   0  0  0  0  0  0  0  0  0  0  0  0
   41.9668  -39.1781    1.2904 C   0  0  0  0  0  0  0  0  0  0  0  0
   41.0407  -38.1389    1.8306 C   0  0  0  0  0  0  0  0  0  0  0  0
   41.8020  -40.5163    1.5990 C   0  0  0  0  0  0  0  0  0  0  0  0
   42.6403  -41.4960    1.1154 C   0  0  0  0  0  0  0  0  0  0  0  0
   42.4317  -42.8983    1.4641 C   0  0  0  0  0  0  0  0  0  0  0  0
   43.3880  -43.6899    1.3310 O   0  0  0  0  0  0  0  0  0  0  0  0
   41.1983  -43.3892    1.9424 N   0  0  0  0  0  0  0  0  0  0  0  0
   41.0409  -44.8042    2.2779 C   0  0  0  0  0  0  0  0  0  0  0  0
   40.7821  -44.9680    3.7542 C   0  0  0  0  0  0  0  0  0  0  0  0
   40.8012  -43.9363    4.4426 O   0  0  0  0  0  0  0  0  0  0  0  0
   40.5381  -46.2282    4.2822 N   0  0  0  0  0  0  0  0  0  0  0  0
   40.2801  -46.5726    5.6229 C   0  0  0  0  0  0  0  0  0  0  0  0
   39.6685  -47.8055    5.8753 C   0  0  0  0  0  0  0  0  0  0  0  0
   39.3657  -48.2656    7.1334 C   0  0  0  0  0  0  0  0  0  0  0  0
   39.6729  -47.4845    8.2272 C   0  0  0  0  0  0  0  0  0  0  0  0
   40.2756  -46.2637    8.0238 C   0  0  0  0  0  0  0  0  0  0  0  0
   40.6763  -45.2524    9.3924 S   0  0  0  0  0  0  0  0  0  0  0  0
   40.2242  -45.9794   10.8841 N   0  0  0  0  0  0  0  0  0  0  0  0
   42.1636  -44.9773    9.4455 O   0  0  0  0  0  0  0  0  0  0  0  0
   39.9851  -43.9170    9.2890 O   0  0  0  0  0  0  0  0  0  0  0  0
   40.5718  -45.8234    6.7202 C   0  0  0  0  0  0  0  0  0  0  0  0
   43.7080  -41.1517    0.2774 C   0  0  0  0  0  0  0  0  0  0  0  0
  1  2  1  0  0  0  0
  2  3  2  0  0  0  0
  3  4  1  0  0  0  0
  4  5  1  0  0  0  0
  4  6  2  0  0  0  0
  6  7  1  0  0  0  0
  7  8  1  0  0  0  0
  7 25  2  0  0  0  0
  8  9  2  0  0  0  0
  8 10  1  0  0  0  0
 10 11  1  0  0  0  0
 11 12  1  0  0  0  0
 12 13  2  0  0  0  0
 12 14  1  0  0  0  0
 14 15  1  0  0  0  0
 15 16  2  0  0  0  0
 16 17  1  0  0  0  0
 17 18  2  0  0  0  0
 18 19  1  0  0  0  0
 19 20  1  0  0  0  0
 19 24  2  0  0  0  0
 20 21  1  0  0  0  0
 20 22  2  0  0  0  0
 20 23  2  0  0  0  0
 24 15  1  0  0  0  0
 25  2  1  0  0  0  0
M  END
>  <CHROM.1>
-160.29097665,115.12214838,-3.08023071,160.80466524,-0.17495472,42.60650884
41.39932267,-43.73201171,4.58109088,-0.35174277,1.28823008,0.99970767

>  <Name>
design_10

>  <RI>
0

>  <Rbt.Current_Directory>
/home/ziqiaoxu/icml18-jtnn/VAEdesign

>  <Rbt.Executable>
rbdock ($Id: //depot/dev/client3/rdock/2013.1/src/exe/rbdock.cxx#4 $)

>  <Rbt.Library>
libRbt.so (2013.1, Build901 2013/11/27)

>  <Rbt.Parameter_File>
/export/apps/rDock/src/rDock_2013.1_src//data/scripts/dock.prm

>  <Rbt.Receptor>
/home/ziqiaoxu/icml18-jtnn/VAEdesign/targets/RdRp-SARS-CoV-2/pocket_docking.prm

>  <SCORE>
-26.7524

>  <SCORE.INTER>
-27.5558

>  <SCORE.INTER.CONST>
1

>  <SCORE.INTER.POLAR>
-4.0216

>  <SCORE.INTER.REPUL>
0

>  <SCORE.INTER.ROT>
6

>  <SCORE.INTER.VDW>
-25.2824

>  <SCORE.INTER.norm>
-1.10223

>  <SCORE.INTRA>
0.803415

>  <SCORE.INTRA.DIHEDRAL>
3.00467

>  <SCORE.INTRA.DIHEDRAL.0>
4.06065

>  <SCORE.INTRA.POLAR>
0

>  <SCORE.INTRA.POLAR.0>
0

>  <SCORE.INTRA.REPUL>
0

>  <SCORE.INTRA.REPUL.0>
0

>  <SCORE.INTRA.VDW>
-0.698923

>  <SCORE.INTRA.VDW.0>
-1.00064

>  <SCORE.INTRA.norm>
0.0321366

>  <SCORE.RESTR>
0

>  <SCORE.RESTR.CAVITY>
0

>  <SCORE.RESTR.norm>
0

>  <SCORE.SYSTEM>
0

>  <SCORE.SYSTEM.CONST>
0

>  <SCORE.SYSTEM.DIHEDRAL>
0

>  <SCORE.SYSTEM.norm>
0

>  <SCORE.heavy>
25

>  <SCORE.norm>
-1.0701

$$$$
design_14
 OpenBabel05252019093D

 24 25  0  0  0  0  0  0  0  0999 V2000
   39.8957  -36.2428    4.2099 N   0  0  0  0  0  0  0  0  0  0  0  0
   39.8108  -37.6565    4.1104 C   0  0  0  0  0  0  0  0  0  0  0  0
   39.7615  -38.2473    2.9862 O   0  0  0  0  0  0  0  0  0  0  0  0
   39.7802  -38.4347    5.3461 C   0  0  0  0  0  0  0  0  0  0  0  0
   39.9324  -37.8347    6.5730 C   0  0  0  0  0  0  0  0  0  0  0  0
   39.9074  -38.5412    7.7425 C   0  0  0  0  0  0  0  0  0  0  0  0
   39.7222  -39.9346    7.7445 C   0  0  0  0  0  0  0  0  0  0  0  0
   39.7121  -40.6322    8.9649 N   0  0  0  0  0  0  0  0  0  0  0  0
   39.8315  -42.0168    9.1432 C   0  0  0  0  0  0  0  0  0  0  0  0
   39.9636  -42.8583    8.2445 O   0  0  0  0  0  0  0  0  0  0  0  0
   39.7974  -42.5431   10.5537 C   0  0  0  0  0  0  0  0  0  0  0  0
   40.7116  -43.7327   10.7228 C   0  0  0  0  0  0  0  0  0  0  0  0
   40.1494  -44.8525   10.0089 N   0  0  0  0  0  0  0  0  0  0  0  0
   40.8474  -45.5295    8.9681 C   0  0  0  0  0  0  0  0  0  0  0  0
   41.9974  -45.1511    8.6456 O   0  0  0  0  0  0  0  0  0  0  0  0
   40.2406  -46.6442    8.2853 C   0  0  0  0  0  0  0  0  0  0  0  0
   39.1670  -47.3278    8.8089 C   0  0  0  0  0  0  0  0  0  0  0  0
   38.5899  -48.3948    8.1504 C   0  0  0  0  0  0  0  0  0  0  0  0
   39.0909  -48.7975    6.9363 C   0  0  0  0  0  0  0  0  0  0  0  0
   40.1604  -48.1218    6.4077 C   0  0  0  0  0  0  0  0  0  0  0  0
   40.7340  -47.0547    7.0710 C   0  0  0  0  0  0  0  0  0  0  0  0
   42.1111  -46.2084    6.3584 Cl  0  0  0  0  0  0  0  0  0  0  0  0
   39.5722  -40.5162    6.5085 C   0  0  0  0  0  0  0  0  0  0  0  0
   39.5974  -39.7961    5.3136 C   0  0  0  0  0  0  0  0  0  0  0  0
  1  2  1  0  0  0  0
  2  3  2  0  0  0  0
  2  4  1  0  0  0  0
  4  5  2  0  0  0  0
  5  6  1  0  0  0  0
  6  7  2  0  0  0  0
  7  8  1  0  0  0  0
  7 23  1  0  0  0  0
  8  9  1  0  0  0  0
  9 10  2  0  0  0  0
  9 11  1  0  0  0  0
 11 12  1  0  0  0  0
 12 13  1  0  0  0  0
 13 14  1  0  0  0  0
 14 15  2  0  0  0  0
 14 16  1  0  0  0  0
 16 17  2  0  0  0  0
 17 18  1  0  0  0  0
 18 19  2  0  0  0  0
 19 20  1  0  0  0  0
 20 21  2  0  0  0  0
 21 22  1  0  0  0  0
 21 16  1  0  0  0  0
 23 24  2  0  0  0  0
 24  4  1  0  0  0  0
M  END
>  <CHROM.1>
-4.93914496,-165.09430551,-144.90425036,-70.04100382,121.47920388,-17.81997004
40.18665471,-42.94516101,7.34211330,-2.16866197,-1.46644627,2.26369417

>  <Name>
design_14

>  <RI>
0

>  <Rbt.Current_Directory>
/home/ziqiaoxu/icml18-jtnn/VAEdesign

>  <Rbt.Executable>
rbdock ($Id: //depot/dev/client3/rdock/2013.1/src/exe/rbdock.cxx#4 $)

>  <Rbt.Library>
libRbt.so (2013.1, Build901 2013/11/27)

>  <Rbt.Parameter_File>
/export/apps/rDock/src/rDock_2013.1_src//data/scripts/dock.prm

>  <Rbt.Receptor>
/home/ziqiaoxu/icml18-jtnn/VAEdesign/targets/RdRp-SARS-CoV-2/pocket_docking.prm

>  <SCORE>
-27.5061

>  <SCORE.INTER>
-24.3782

>  <SCORE.INTER.CONST>
1

>  <SCORE.INTER.POLAR>
-3.08726

>  <SCORE.INTER.REPUL>
0

>  <SCORE.INTER.ROT>
6

>  <SCORE.INTER.VDW>
-25.2815

>  <SCORE.INTER.norm>
-1.01576

>  <SCORE.INTRA>
-3.13583

>  <SCORE.INTRA.DIHEDRAL>
-9.60591

>  <SCORE.INTRA.DIHEDRAL.0>
15.417

>  <SCORE.INTRA.POLAR>
0

>  <SCORE.INTRA.POLAR.0>
0

>  <SCORE.INTRA.REPUL>
0

>  <SCORE.INTRA.REPUL.0>
0

>  <SCORE.INTRA.VDW>
1.66712

>  <SCORE.INTRA.VDW.0>
0.0548641

>  <SCORE.INTRA.norm>
-0.13066

>  <SCORE.RESTR>
0.0079701

>  <SCORE.RESTR.CAVITY>
0.0079701

>  <SCORE.RESTR.norm>
0.000332088

>  <SCORE.SYSTEM>
0

>  <SCORE.SYSTEM.CONST>
0

>  <SCORE.SYSTEM.DIHEDRAL>
0

>  <SCORE.SYSTEM.norm>
0

>  <SCORE.heavy>
24

>  <SCORE.norm>
-1.14609

$$$$
design_4
 OpenBabel05252019093D

 25 27  0  0  0  0  0  0  0  0999 V2000
   39.5420  -46.6383    9.7941 N   0  0  0  0  0  0  0  0  0  0  0  0
   39.8486  -46.3822    8.4324 C   0  0  0  0  0  0  0  0  0  0  0  0
   41.0026  -46.0059    8.1534 O   0  0  0  0  0  0  0  0  0  0  0  0
   38.8312  -46.5582    7.3918 C   0  0  0  0  0  0  0  0  0  0  0  0
   38.6974  -47.7927    6.7999 C   0  0  0  0  0  0  0  0  0  0  0  0
   37.7367  -47.9273    5.8291 C   0  0  0  0  0  0  0  0  0  0  0  0
   36.9248  -46.8430    5.4589 C   0  0  0  0  0  0  0  0  0  0  0  0
   37.0391  -45.6000    6.0352 C   0  0  0  0  0  0  0  0  0  0  0  0
   36.2679  -44.4771    5.7119 N   0  0  0  0  0  0  0  0  0  0  0  0
   36.6435  -43.1337    5.8038 C   0  0  0  0  0  0  0  0  0  0  0  0
   37.7493  -42.6975    6.1974 O   0  0  0  0  0  0  0  0  0  0  0  0
   35.6667  -42.0404    5.4044 C   0  0  0  0  0  0  0  0  0  0  0  0
   35.5612  -40.9925    6.4793 C   0  0  0  0  0  0  0  0  0  0  0  0
   36.8420  -40.2796    6.6013 C   0  0  0  0  0  0  0  0  0  0  0  0
   37.6841  -40.4851    7.6453 N   0  0  0  0  0  0  0  0  0  0  0  0
   38.8572  -39.8379    7.7652 C   0  0  0  0  0  0  0  0  0  0  0  0
   39.7100  -40.0487    8.8266 C   0  0  0  0  0  0  0  0  0  0  0  0
   40.9186  -39.3505    8.9052 C   0  0  0  0  0  0  0  0  0  0  0  0
   41.2568  -38.4593    7.9323 C   0  0  0  0  0  0  0  0  0  0  0  0
   40.4006  -38.2517    6.8723 C   0  0  0  0  0  0  0  0  0  0  0  0
   39.1941  -38.9343    6.7735 C   0  0  0  0  0  0  0  0  0  0  0  0
   38.3419  -38.7331    5.7264 C   0  0  0  0  0  0  0  0  0  0  0  0
   38.6656  -37.9103    4.8383 O   0  0  0  0  0  0  0  0  0  0  0  0
   37.1756  -39.3912    5.6283 N   0  0  0  0  0  0  0  0  0  0  0  0
   38.0355  -45.5021    7.0265 C   0  0  0  0  0  0  0  0  0  0  0  0
  1  2  1  0  0  0  0
  2  3  2  0  0  0  0
  2  4  1  0  0  0  0
  4  5  2  0  0  0  0
  5  6  1  0  0  0  0
  6  7  2  0  0  0  0
  7  8  1  0  0  0  0
  8  9  1  0  0  0  0
  8 25  2  0  0  0  0
  9 10  1  0  0  0  0
 10 11  2  0  0  0  0
 10 12  1  0  0  0  0
 12 13  1  0  0  0  0
 13 14  1  0  0  0  0
 14 15  2  0  0  0  0
 15 16  1  0  0  0  0
 16 17  2  0  0  0  0
 17 18  1  0  0  0  0
 18 19  2  0  0  0  0
 19 20  1  0  0  0  0
 20 21  2  0  0  0  0
 21 22  1  0  0  0  0
 21 16  1  0  0  0  0
 22 23  2  0  0  0  0
 22 24  1  0  0  0  0
 24 14  1  0  0  0  0
 25  4  1  0  0  0  0
M  END
>  <CHROM.1>
-88.86269558,-151.02665445,129.84739369,66.32567685,-106.18183375,38.33600674
-42.58148752,6.87762701,-1.65169750,-0.63112925,-0.09230467

>  <Name>
design_4

>  <RI>
0

>  <Rbt.Current_Directory>
/home/ziqiaoxu/icml18-jtnn/VAEdesign

>  <Rbt.Executable>
rbdock ($Id: //depot/dev/client3/rdock/2013.1/src/exe/rbdock.cxx#4 $)

>  <Rbt.Library>
libRbt.so (2013.1, Build901 2013/11/27)

>  <Rbt.Parameter_File>
/export/apps/rDock/src/rDock_2013.1_src//data/scripts/dock.prm

>  <Rbt.Receptor>
/home/ziqiaoxu/icml18-jtnn/VAEdesign/targets/RdRp-SARS-CoV-2/pocket_docking.prm

>  <SCORE>
-17.533

>  <SCORE.INTER>
-24.2899

>  <SCORE.INTER.CONST>
1

>  <SCORE.INTER.POLAR>
-2.7798

>  <SCORE.INTER.REPUL>
0.00826203

>  <SCORE.INTER.ROT>
5

>  <SCORE.INTER.VDW>
-25.2799

>  <SCORE.INTER.norm>
-0.971597

>  <SCORE.INTRA>
6.73582

>  <SCORE.INTRA.DIHEDRAL>
17.426

>  <SCORE.INTRA.DIHEDRAL.0>
1.85432

>  <SCORE.INTRA.POLAR>
0

>  <SCORE.INTRA.POLAR.0>
0

>  <SCORE.INTRA.REPUL>
0

>  <SCORE.INTRA.REPUL.0>
0

>  <SCORE.INTRA.VDW>
-1.97716

>  <SCORE.INTRA.VDW.0>
1.16657

>  <SCORE.INTRA.norm>
0.269433

>  <SCORE.RESTR>
0.0211469

>  <SCORE.RESTR.CAVITY>
0.0211469

>  <SCORE.RESTR.norm>
0.000845877

>  <SCORE.SYSTEM>
0

>  <SCORE.SYSTEM.CONST>
0

>  <SCORE.SYSTEM.DIHEDRAL>
0

>  <SCORE.SYSTEM.norm>
0

>  <SCORE.heavy>
25

>  <SCORE.norm>
-0.701319

$$$$
design_3
 OpenBabel05252019093D

 24 26  0  0  0  0  0  0  0  0999 V2000
   40.5700  -41.7690    8.1763 C   0  0  0  0  0  0  0  0  0  0  0  0
   40.5410  -40.3061    7.7752 C   0  0  0  0  0  0  0  0  0  0  0  0
   40.5177  -39.3332    8.7415 C   0  0  0  0  0  0  0  0  0  0  0  0
   40.4929  -37.9095    7.7702 S   0  0  0  0  0  0  0  0  0  0  0  0
   40.5136  -38.6476    6.2364 C   0  0  0  0  0  0  0  0  0  0  0  0
   40.5052  -37.9501    4.9479 C   0  0  0  0  0  0  0  0  0  0  0  0
   40.1252  -36.6260    4.8661 C   0  0  0  0  0  0  0  0  0  0  0  0
   40.1017  -35.9363    3.6890 C   0  0  0  0  0  0  0  0  0  0  0  0
   40.4792  -36.6125    2.5377 C   0  0  0  0  0  0  0  0  0  0  0  0
   40.8681  -37.9378    2.5634 C   0  0  0  0  0  0  0  0  0  0  0  0
   41.2615  -38.6336    1.3157 C   0  0  0  0  0  0  0  0  0  0  0  0
   41.3253  -40.0669    1.4904 N   0  0  0  0  0  0  0  0  0  0  0  0
   42.3340  -40.8456    0.9029 C   0  0  0  0  0  0  0  0  0  0  0  0
   43.2098  -40.2378    0.1972 O   0  0  0  0  0  0  0  0  0  0  0  0
   42.4551  -42.2796    1.0366 C   0  0  0  0  0  0  0  0  0  0  0  0
   41.5502  -43.0104    1.8130 C   0  0  0  0  0  0  0  0  0  0  0  0
   41.6814  -44.3824    1.9315 C   0  0  0  0  0  0  0  0  0  0  0  0
   42.7068  -45.0667    1.2880 C   0  0  0  0  0  0  0  0  0  0  0  0
   43.5952  -44.3634    0.5278 C   0  0  0  0  0  0  0  0  0  0  0  0
   44.6809  -45.0207   -0.1642 C   0  0  0  0  0  0  0  0  0  0  0  0
   45.5603  -45.5384   -0.7132 N   0  0  0  0  0  0  0  0  0  0  0  0
   43.4573  -42.9855    0.4134 C   0  0  0  0  0  0  0  0  0  0  0  0
   40.8686  -38.5770    3.7931 C   0  0  0  0  0  0  0  0  0  0  0  0
   40.5382  -39.9314    6.5380 N   0  0  0  0  0  0  0  0  0  0  0  0
  1  2  1  0  0  0  0
  2  3  2  0  0  0  0
  3  4  1  0  0  0  0
  4  5  1  0  0  0  0
  5  6  1  0  0  0  0
  5 24  2  0  0  0  0
  6  7  2  0  0  0  0
  7  8  1  0  0  0  0
  8  9  2  0  0  0  0
  9 10  1  0  0  0  0
 10 11  1  0  0  0  0
 10 23  2  0  0  0  0
 11 12  1  0  0  0  0
 12 13  1  0  0  0  0
 13 14  2  0  0  0  0
 13 15  1  0  0  0  0
 15 16  2  0  0  0  0
 16 17  1  0  0  0  0
 17 18  2  0  0  0  0
 18 19  1  0  0  0  0
 19 20  1  0  0  0  0
 19 22  2  0  0  0  0
 20 21  3  0  0  0  0
 22 15  1  0  0  0  0
 23  6  1  0  0  0  0
 24  2  1  0  0  0  0
M  END
>  <CHROM.1>
-17.37414833,-166.28016631,-140.33482309,-1.22987324,41.60061815,-40.43049112
3.48786150,-2.98788570,1.20676189,-0.90126974

>  <Name>
design_3

>  <RI>
0

>  <Rbt.Current_Directory>
/home/ziqiaoxu/icml18-jtnn/VAEdesign

>  <Rbt.Executable>
rbdock ($Id: //depot/dev/client3/rdock/2013.1/src/exe/rbdock.cxx#4 $)

>  <Rbt.Library>
libRbt.so (2013.1, Build901 2013/11/27)

>  <Rbt.Parameter_File>
/export/apps/rDock/src/rDock_2013.1_src//data/scripts/dock.prm

>  <Rbt.Receptor>
/home/ziqiaoxu/icml18-jtnn/VAEdesign/targets/RdRp-SARS-CoV-2/pocket_docking.prm

>  <SCORE>
-18.6971

>  <SCORE.INTER>
-19.4958

>  <SCORE.INTER.CONST>
1

>  <SCORE.INTER.POLAR>
-1.06368

>  <SCORE.INTER.REPUL>
0

>  <SCORE.INTER.ROT>
4

>  <SCORE.INTER.VDW>
-25.2793

>  <SCORE.INTER.norm>
-0.812324

>  <SCORE.INTRA>
0.798687

>  <SCORE.INTRA.DIHEDRAL>
1.13162

>  <SCORE.INTRA.DIHEDRAL.0>
1.92973

>  <SCORE.INTRA.POLAR>
0

>  <SCORE.INTRA.POLAR.0>
0

>  <SCORE.INTRA.REPUL>
0

>  <SCORE.INTRA.REPUL.0>
0

>  <SCORE.INTRA.VDW>
0.232879

>  <SCORE.INTRA.VDW.0>
-1.18441

>  <SCORE.INTRA.norm>
0.0332786

>  <SCORE.RESTR>
0

>  <SCORE.RESTR.CAVITY>
0

>  <SCORE.RESTR.norm>
0

>  <SCORE.SYSTEM>
0

>  <SCORE.SYSTEM.CONST>
0

>  <SCORE.SYSTEM.DIHEDRAL>
0

>  <SCORE.SYSTEM.norm>
0

>  <SCORE.heavy>
24

>  <SCORE.norm>
-0.779046

$$$$
design_10
 OpenBabel05252019093D

 24 26  0  0  0  0  0  0  0  0999 V2000
   44.8468  -44.7581   -0.5327 N   0  0  0  0  0  0  0  0  0  0  0  0
   44.1055  -45.9228    0.4970 S   0  0  0  0  0  0  0  0  0  0  0  0
   44.0717  -47.2888   -0.1114 O   0  0  0  0  0  0  0  0  0  0  0  0
   42.6527  -45.5021    0.6576 O   0  0  0  0  0  0  0  0  0  0  0  0
   44.8794  -45.9851    2.0679 C   0  0  0  0  0  0  0  0  0  0  0  0
   46.0645  -46.7018    2.1840 C   0  0  0  0  0  0  0  0  0  0  0  0
   46.7026  -46.7910    3.3970 C   0  0  0  0  0  0  0  0  0  0  0  0
   46.1479  -46.1574    4.5027 C   0  0  0  0  0  0  0  0  0  0  0  0
   44.9792  -45.4441    4.4168 C   0  0  0  0  0  0  0  0  0  0  0  0
   44.3680  -44.7857    5.5882 C   0  0  0  0  0  0  0  0  0  0  0  0
   43.5425  -43.8649    5.3777 O   0  0  0  0  0  0  0  0  0  0  0  0
   44.7330  -45.2170    6.8727 N   0  0  0  0  0  0  0  0  0  0  0  0
   44.3325  -44.7556    8.1453 C   0  0  0  0  0  0  0  0  0  0  0  0
   43.0020  -44.2108    8.3166 C   0  0  0  0  0  0  0  0  0  0  0  0
   41.8639  -44.8969    8.8701 C   0  0  0  0  0  0  0  0  0  0  0  0
   41.2395  -44.7037   10.1134 C   0  0  0  0  0  0  0  0  0  0  0  0
   40.2423  -45.5857   10.1869 N   0  0  0  0  0  0  0  0  0  0  0  0
   40.1548  -46.3530    9.0843 C   0  0  0  0  0  0  0  0  0  0  0  0
   39.3098  -47.3617    8.6991 C   0  0  0  0  0  0  0  0  0  0  0  0
   39.4531  -47.9645    7.4837 C   0  0  0  0  0  0  0  0  0  0  0  0
   40.4521  -47.5524    6.6469 C   0  0  0  0  0  0  0  0  0  0  0  0
   41.2861  -46.5547    7.0332 C   0  0  0  0  0  0  0  0  0  0  0  0
   41.1614  -45.9340    8.2521 C   0  0  0  0  0  0  0  0  0  0  0  0
   44.3339  -45.3551    3.1801 C   0  0  0  0  0  0  0  0  0  0  0  0
  1  2  1  0  0  0  0
  2  3  2  0  0  0  0
  2  4  2  0  0  0  0
  2  5  1  0  0  0  0
  5  6  2  0  0  0  0
  6  7  1  0  0  0  0
  7  8  2  0  0  0  0
  8  9  1  0  0  0  0
  9 10  1  0  0  0  0
  9 24  2  0  0  0  0
 10 11  2  0  0  0  0
 10 12  1  0  0  0  0
 12 13  1  0  0  0  0
 13 14  1  0  0  0  0
 14 15  1  0  0  0  0
 15 16  2  0  0  0  0
 16 17  1  0  0  0  0
 17 18  1  0  0  0  0
 18 19  2  0  0  0  0
 19 20  1  0  0  0  0
 20 21  2  0  0  0  0
 21 22  1  0  0  0  0
 22 23  2  0  0  0  0
 23 15  1  0  0  0  0
 23 18  1  0  0  0  0
 24  5  1  0  0  0  0
M  END
>  <CHROM.1>
106.48166809,-80.02232354,160.21351481,31.25905686,100.22141031,107.97532196
43.16025526,-45.80217247,5.07195892,1.08928899,-0.39496979,-1.77520566

>  <Name>
design_10

>  <RI>
0

>  <Rbt.Current_Directory>
/home/ziqiaoxu/icml18-jtnn/VAEdesign

>  <Rbt.Executable>
rbdock ($Id: //depot/dev/client3/rdock/2013.1/src/exe/rbdock.cxx#4 $)

>  <Rbt.Library>
libRbt.so (2013.1, Build901 2013/11/27)

>  <Rbt.Parameter_File>
/export/apps/rDock/src/rDock_2013.1_src//data/scripts/dock.prm

>  <Rbt.Receptor>
/home/ziqiaoxu/icml18-jtnn/VAEdesign/targets/RdRp-SARS-CoV-2/pocket_docking.prm

>  <SCORE>
-23.4814

>  <SCORE.INTER>
-25.6644

>  <SCORE.INTER.CONST>
1

>  <SCORE.INTER.POLAR>
-3.47772

>  <SCORE.INTER.REPUL>
0.00762078

>  <SCORE.INTER.ROT>
6

>  <SCORE.INTER.VDW>
-25.2782

>  <SCORE.INTER.norm>
-1.06935

>  <SCORE.INTRA>
2.18296

>  <SCORE.INTRA.DIHEDRAL>
1.60658

>  <SCORE.INTRA.DIHEDRAL.0>
9.05352

>  <SCORE.INTRA.POLAR>
0

>  <SCORE.INTRA.POLAR.0>
0

>  <SCORE.INTRA.REPUL>
0

>  <SCORE.INTRA.REPUL.0>
0

>  <SCORE.INTRA.VDW>
1.37967

>  <SCORE.INTRA.VDW.0>
-2.99479

>  <SCORE.INTRA.norm>
0.0909566

>  <SCORE.RESTR>
0

>  <SCORE.RESTR.CAVITY>
0

>  <SCORE.RESTR.norm>
0

>  <SCORE.SYSTEM>
0

>  <SCORE.SYSTEM.CONST>
0

>  <SCORE.SYSTEM.DIHEDRAL>
0

>  <SCORE.SYSTEM.norm>
0

>  <SCORE.heavy>
24

>  <SCORE.norm>
-0.978392

$$$$
design_4
 OpenBabel05252019093D

 26 29  0  0  0  0  0  0  0  0999 V2000
   47.2574  -45.0385    4.2135 C   0  0  0  0  0  0  0  0  0  0  0  0
   46.4232  -44.8757    5.4486 C   0  0  0  0  0  0  0  0  0  0  0  0
   46.8369  -44.0571    6.4779 C   0  0  0  0  0  0  0  0  0  0  0  0
   46.0686  -43.9038    7.6252 C   0  0  0  0  0  0  0  0  0  0  0  0
   44.8648  -44.5629    7.7801 C   0  0  0  0  0  0  0  0  0  0  0  0
   44.0703  -44.3938    8.9913 C   0  0  0  0  0  0  0  0  0  0  0  0
   44.4645  -43.9574   10.1990 N   0  0  0  0  0  0  0  0  0  0  0  0
   43.4566  -43.9334   11.0629 N   0  0  0  0  0  0  0  0  0  0  0  0
   42.3737  -44.3664   10.3998 C   0  0  0  0  0  0  0  0  0  0  0  0
   40.9898  -44.5249   10.9042 C   0  0  0  0  0  0  0  0  0  0  0  0
   40.4021  -45.7451   10.3940 N   0  0  0  0  0  0  0  0  0  0  0  0
   39.3104  -45.7490    9.4855 C   0  0  0  0  0  0  0  0  0  0  0  0
   38.8308  -44.6404    9.1110 O   0  0  0  0  0  0  0  0  0  0  0  0
   38.7760  -47.0498    9.0118 C   0  0  0  0  0  0  0  0  0  0  0  0
   39.2812  -47.4336    7.6759 C   0  0  0  0  0  0  0  0  0  0  0  0
   38.9338  -48.6147    7.0322 C   0  0  0  0  0  0  0  0  0  0  0  0
   39.5507  -48.6421    5.8390 N   0  0  0  0  0  0  0  0  0  0  0  0
   40.2826  -47.4967    5.7197 C   0  0  0  0  0  0  0  0  0  0  0  0
   41.0902  -47.0286    4.7096 C   0  0  0  0  0  0  0  0  0  0  0  0
   41.7506  -45.8052    4.8101 C   0  0  0  0  0  0  0  0  0  0  0  0
   41.5819  -45.0599    5.9497 C   0  0  0  0  0  0  0  0  0  0  0  0
   40.7785  -45.5120    6.9694 C   0  0  0  0  0  0  0  0  0  0  0  0
   40.1311  -46.7255    6.8542 C   0  0  0  0  0  0  0  0  0  0  0  0
   42.7565  -44.6510    9.1182 N   0  0  0  0  0  0  0  0  0  0  0  0
   44.4647  -45.3765    6.7443 C   0  0  0  0  0  0  0  0  0  0  0  0
   45.2196  -45.5359    5.6007 C   0  0  0  0  0  0  0  0  0  0  0  0
  1  2  1  0  0  0  0
  2  3  2  0  0  0  0
  3  4  1  0  0  0  0
  4  5  2  0  0  0  0
  5  6  1  0  0  0  0
  5 25  1  0  0  0  0
  6  7  2  0  0  0  0
  7  8  1  0  0  0  0
  8  9  1  0  0  0  0
  9 10  1  0  0  0  0
  9 24  2  0  0  0  0
 10 11  1  0  0  0  0
 11 12  1  0  0  0  0
 12 13  2  0  0  0  0
 12 14  1  0  0  0  0
 14 15  1  0  0  0  0
 15 16  2  0  0  0  0
 16 17  1  0  0  0  0
 17 18  1  0  0  0  0
 18 19  2  0  0  0  0
 19 20  1  0  0  0  0
 20 21  2  0  0  0  0
 21 22  1  0  0  0  0
 22 23  2  0  0  0  0
 23 15  1  0  0  0  0
 23 18  1  0  0  0  0
 24  6  1  0  0  0  0
 25 26  2  0  0  0  0
 26  2  1  0  0  0  0
M  END
>  <CHROM.1>
-20.00102909,-139.32569445,-113.28654732,-99.01647468,179.25978882,42.28374327
-45.55782463,7.66190997,0.05801509,-0.38003628,-1.98759793

>  <Name>
design_4

>  <RI>
0

>  <Rbt.Current_Directory>
/home/ziqiaoxu/icml18-jtnn/VAEdesign

>  <Rbt.Executable>
rbdock ($Id: //depot/dev/client3/rdock/2013.1/src/exe/rbdock.cxx#4 $)

>  <Rbt.Library>
libRbt.so (2013.1, Build901 2013/11/27)

>  <Rbt.Parameter_File>
/export/apps/rDock/src/rDock_2013.1_src//data/scripts/dock.prm

>  <Rbt.Receptor>
/home/ziqiaoxu/icml18-jtnn/VAEdesign/targets/RdRp-SARS-CoV-2/pocket_docking.prm

>  <SCORE>
-21.5214

>  <SCORE.INTER>
-22.8809

>  <SCORE.INTER.CONST>
1

>  <SCORE.INTER.POLAR>
-2.35394

>  <SCORE.INTER.REPUL>
0

>  <SCORE.INTER.ROT>
5

>  <SCORE.INTER.VDW>
-25.2775

>  <SCORE.INTER.norm>
-0.880035

>  <SCORE.INTRA>
1.35954

>  <SCORE.INTRA.DIHEDRAL>
3.66939

>  <SCORE.INTRA.DIHEDRAL.0>
4.41341

>  <SCORE.INTRA.POLAR>
0

>  <SCORE.INTRA.POLAR.0>
0

>  <SCORE.INTRA.REPUL>
0

>  <SCORE.INTRA.REPUL.0>
0

>  <SCORE.INTRA.VDW>
-0.475156

>  <SCORE.INTRA.VDW.0>
-2.68304

>  <SCORE.INTRA.norm>
0.05229

>  <SCORE.RESTR>
0

>  <SCORE.RESTR.CAVITY>
0

>  <SCORE.RESTR.norm>
0

>  <SCORE.SYSTEM>
0

>  <SCORE.SYSTEM.CONST>
0

>  <SCORE.SYSTEM.DIHEDRAL>
0

>  <SCORE.SYSTEM.norm>
0

>  <SCORE.heavy>
26

>  <SCORE.norm>
-0.827745

$$$$
design_11
 OpenBabel05252019093D

 23 25  0  0  0  0  0  0  0  0999 V2000
   39.3430  -44.2006    9.4695 O   0  0  0  0  0  0  0  0  0  0  0  0
   40.0528  -45.0729   10.0148 C   0  0  0  0  0  0  0  0  0  0  0  0
   41.2482  -44.6890   10.7591 C   0  0  0  0  0  0  0  0  0  0  0  0
   42.4431  -44.6503    9.8102 C   0  0  0  0  0  0  0  0  0  0  0  0
   43.6378  -44.0737   10.1878 C   0  0  0  0  0  0  0  0  0  0  0  0
   44.5874  -44.3031    8.7883 S   0  0  0  0  0  0  0  0  0  0  0  0
   43.4348  -45.1033    7.8210 C   0  0  0  0  0  0  0  0  0  0  0  0
   43.5656  -45.6281    6.4075 C   0  0  0  0  0  0  0  0  0  0  0  0
   43.1630  -44.6575    5.4894 O   0  0  0  0  0  0  0  0  0  0  0  0
   43.2362  -44.9477    4.1350 C   0  0  0  0  0  0  0  0  0  0  0  0
   42.1990  -44.7640    3.2532 C   0  0  0  0  0  0  0  0  0  0  0  0
   42.2890  -45.0587    1.9043 C   0  0  0  0  0  0  0  0  0  0  0  0
   43.4587  -45.5585    1.4017 C   0  0  0  0  0  0  0  0  0  0  0  0
   44.5149  -45.7510    2.2725 C   0  0  0  0  0  0  0  0  0  0  0  0
   44.4150  -45.4541    3.6153 C   0  0  0  0  0  0  0  0  0  0  0  0
   42.3817  -45.1543    8.6183 N   0  0  0  0  0  0  0  0  0  0  0  0
   39.6854  -46.4301    9.9025 N   0  0  0  0  0  0  0  0  0  0  0  0
   38.5051  -46.8253    9.1683 C   0  0  0  0  0  0  0  0  0  0  0  0
   38.9048  -47.5640    7.8992 C   0  0  0  0  0  0  0  0  0  0  0  0
   39.8245  -46.9993    7.0499 C   0  0  0  0  0  0  0  0  0  0  0  0
   39.9263  -48.1823    5.8203 S   0  0  0  0  0  0  0  0  0  0  0  0
   38.8090  -49.3065    6.4519 C   0  0  0  0  0  0  0  0  0  0  0  0
   38.4182  -48.7174    7.5688 N   0  0  0  0  0  0  0  0  0  0  0  0
  1  2  2  0  0  0  0
  2  3  1  0  0  0  0
  2 17  1  0  0  0  0
  3  4  1  0  0  0  0
  4  5  2  0  0  0  0
  5  6  1  0  0  0  0
  6  7  1  0  0  0  0
  7  8  1  0  0  0  0
  7 16  2  0  0  0  0
  8  9  1  0  0  0  0
  9 10  1  0  0  0  0
 10 11  2  0  0  0  0
 11 12  1  0  0  0  0
 12 13  2  0  0  0  0
 13 14  1  0  0  0  0
 14 15  2  0  0  0  0
 15 10  1  0  0  0  0
 16  4  1  0  0  0  0
 17 18  1  0  0  0  0
 18 19  1  0  0  0  0
 19 20  2  0  0  0  0
 20 21  1  0  0  0  0
 21 22  1  0  0  0  0
 22 23  2  0  0  0  0
 23 19  1  0  0  0  0
M  END
>  <CHROM.1>
-89.22054391,167.38774786,-91.65841957,178.80796842,129.68135704,111.00855412
-51.12982686,41.69255820,-45.82985615,6.94781477,-2.17355802,-0.59156253
-1.82656844

>  <Name>
design_11

>  <RI>
0

>  <Rbt.Current_Directory>
/home/ziqiaoxu/icml18-jtnn/VAEdesign

>  <Rbt.Executable>
rbdock ($Id: //depot/dev/client3/rdock/2013.1/src/exe/rbdock.cxx#4 $)

>  <Rbt.Library>
libRbt.so (2013.1, Build901 2013/11/27)

>  <Rbt.Parameter_File>
/export/apps/rDock/src/rDock_2013.1_src//data/scripts/dock.prm

>  <Rbt.Receptor>
/home/ziqiaoxu/icml18-jtnn/VAEdesign/targets/RdRp-SARS-CoV-2/pocket_docking.prm

>  <SCORE>
-16.483

>  <SCORE.INTER>
-17.2465

>  <SCORE.INTER.CONST>
1

>  <SCORE.INTER.POLAR>
-1.2853

>  <SCORE.INTER.REPUL>
0

>  <SCORE.INTER.ROT>
7

>  <SCORE.INTER.VDW>
-25.2764

>  <SCORE.INTER.norm>
-0.749846

>  <SCORE.INTRA>
0.763471

>  <SCORE.INTRA.DIHEDRAL>
4.76908

>  <SCORE.INTRA.DIHEDRAL.0>
6.69905

>  <SCORE.INTRA.POLAR>
0

>  <SCORE.INTRA.POLAR.0>
0

>  <SCORE.INTRA.REPUL>
0

>  <SCORE.INTRA.REPUL.0>
0

>  <SCORE.INTRA.VDW>
-1.62107

>  <SCORE.INTRA.VDW.0>
-0.406042

>  <SCORE.INTRA.norm>
0.0331944

>  <SCORE.RESTR>
0

>  <SCORE.RESTR.CAVITY>
0

>  <SCORE.RESTR.norm>
0

>  <SCORE.SYSTEM>
0

>  <SCORE.SYSTEM.CONST>
0

>  <SCORE.SYSTEM.DIHEDRAL>
0

>  <SCORE.SYSTEM.norm>
0

>  <SCORE.heavy>
23

>  <SCORE.norm>
-0.716651

$$$$
design_1
 OpenBabel05252019093D

 20 21  0  0  0  0  0  0  0  0999 V2000
   40.0149  -46.2531   10.4252 N   0  0  0  0  0  0  0  0  0  0  0  0
   40.4900  -45.7699    9.1896 C   0  0  0  0  0  0  0  0  0  0  0  0
   41.0670  -44.6623    9.0535 O   0  0  0  0  0  0  0  0  0  0  0  0
   40.2986  -46.6083    7.9992 C   0  0  0  0  0  0  0  0  0  0  0  0
   39.4665  -47.7051    8.0633 C   0  0  0  0  0  0  0  0  0  0  0  0
   39.2749  -48.5017    6.9583 C   0  0  0  0  0  0  0  0  0  0  0  0
   39.9086  -48.2259    5.7582 C   0  0  0  0  0  0  0  0  0  0  0  0
   40.7385  -47.1381    5.6842 C   0  0  0  0  0  0  0  0  0  0  0  0
   41.4769  -46.7427    4.5466 N   0  0  0  0  0  0  0  0  0  0  0  0
   42.5274  -45.8302    4.6034 C   0  0  0  0  0  0  0  0  0  0  0  0
   42.9310  -45.2616    5.6233 O   0  0  0  0  0  0  0  0  0  0  0  0
   43.2415  -45.4994    3.3169 C   0  0  0  0  0  0  0  0  0  0  0  0
   42.3034  -44.8798    2.3381 C   0  0  0  0  0  0  0  0  0  0  0  0
   42.9847  -44.1508    1.2114 C   0  0  0  0  0  0  0  0  0  0  0  0
   43.8316  -45.1509    0.4557 C   0  0  0  0  0  0  0  0  0  0  0  0
   45.1949  -45.1715    0.3512 C   0  0  0  0  0  0  0  0  0  0  0  0
   45.7436  -46.1691   -0.3743 C   0  0  0  0  0  0  0  0  0  0  0  0
   44.8880  -47.0700   -0.9400 C   0  0  0  0  0  0  0  0  0  0  0  0
   43.3554  -46.5119   -0.4528 S   0  0  0  0  0  0  0  0  0  0  0  0
   40.9324  -46.3248    6.8160 C   0  0  0  0  0  0  0  0  0  0  0  0
  1  2  1  0  0  0  0
  2  3  2  0  0  0  0
  2  4  1  0  0  0  0
  4  5  2  0  0  0  0
  5  6  1  0  0  0  0
  6  7  2  0  0  0  0
  7  8  1  0  0  0  0
  8  9  1  0  0  0  0
  8 20  2  0  0  0  0
  9 10  1  0  0  0  0
 10 11  2  0  0  0  0
 10 12  1  0  0  0  0
 12 13  1  0  0  0  0
 13 14  1  0  0  0  0
 14 15  1  0  0  0  0
 15 16  2  0  0  0  0
 16 17  1  0  0  0  0
 17 18  2  0  0  0  0
 18 19  1  0  0  0  0
 19 15  1  0  0  0  0
 20  4  1  0  0  0  0
M  END
>  <CHROM.1>
11.65446409,-164.71192616,61.58235779,162.61140240,60.75687831,-114.59627884
42.10953564,-46.17270871,4.27953660,-2.28938953,-0.87308639,-2.08349377

>  <Name>
design_1

>  <RI>
0

>  <Rbt.Current_Directory>
/home/ziqiaoxu/icml18-jtnn/VAEdesign

>  <Rbt.Executable>
rbdock ($Id: //depot/dev/client3/rdock/2013.1/src/exe/rbdock.cxx#4 $)

>  <Rbt.Library>
libRbt.so (2013.1, Build901 2013/11/27)

>  <Rbt.Parameter_File>
/export/apps/rDock/src/rDock_2013.1_src//data/scripts/dock.prm

>  <Rbt.Receptor>
/home/ziqiaoxu/icml18-jtnn/VAEdesign/targets/RdRp-SARS-CoV-2/pocket_docking.prm

>  <SCORE>
-25.8998

>  <SCORE.INTER>
-25.3125

>  <SCORE.INTER.CONST>
1

>  <SCORE.INTER.POLAR>
-3.43107

>  <SCORE.INTER.REPUL>
0.045874

>  <SCORE.INTER.ROT>
6

>  <SCORE.INTER.VDW>
-25.2762

>  <SCORE.INTER.norm>
-1.26562

>  <SCORE.INTRA>
-0.587322

>  <SCORE.INTRA.DIHEDRAL>
-0.934532

>  <SCORE.INTRA.DIHEDRAL.0>
4.43717

>  <SCORE.INTRA.POLAR>
0

>  <SCORE.INTRA.POLAR.0>
0

>  <SCORE.INTRA.REPUL>
0

>  <SCORE.INTRA.REPUL.0>
0

>  <SCORE.INTRA.VDW>
-0.120056

>  <SCORE.INTRA.VDW.0>
1.2375

>  <SCORE.INTRA.norm>
-0.0293661

>  <SCORE.RESTR>
0

>  <SCORE.RESTR.CAVITY>
0

>  <SCORE.RESTR.norm>
0

>  <SCORE.SYSTEM>
0

>  <SCORE.SYSTEM.CONST>
0

>  <SCORE.SYSTEM.DIHEDRAL>
0

>  <SCORE.SYSTEM.norm>
0

>  <SCORE.heavy>
20

>  <SCORE.norm>
-1.29499

$$$$
design_13
 OpenBabel05252019093D

 24 25  0  0  0  0  0  0  0  0999 V2000
   50.8642  -46.1940    3.1575 C   0  0  0  0  0  0  0  0  0  0  0  0
   49.8618  -47.2755    2.8558 C   0  0  0  0  0  0  0  0  0  0  0  0
   48.4398  -46.7670    2.8283 C   0  0  1  0  0  0  0  0  0  0  0  0
   47.4611  -47.8446    2.4247 C   0  0  0  0  0  0  0  0  0  0  0  0
   48.0631  -46.2344    4.1082 N   0  0  0  0  0  0  0  0  0  0  0  0
   46.9053  -45.4449    4.2541 C   0  0  0  0  0  0  0  0  0  0  0  0
   46.2047  -45.2173    3.2237 O   0  0  0  0  0  0  0  0  0  0  0  0
   46.4912  -44.8833    5.5550 C   0  0  0  0  0  0  0  0  0  0  0  0
   47.3807  -44.0143    6.1742 C   0  0  0  0  0  0  0  0  0  0  0  0
   47.0364  -43.4703    7.3821 C   0  0  0  0  0  0  0  0  0  0  0  0
   45.8221  -43.7901    7.9618 C   0  0  0  0  0  0  0  0  0  0  0  0
   44.9351  -44.6388    7.3750 C   0  0  0  0  0  0  0  0  0  0  0  0
   43.6858  -45.0060    7.9461 N   0  0  0  0  0  0  0  0  0  0  0  0
   42.6718  -45.7833    7.3879 C   0  0  0  0  0  0  0  0  0  0  0  0
   42.7602  -46.2778    6.2270 O   0  0  0  0  0  0  0  0  0  0  0  0
   41.4162  -46.0847    8.1200 C   0  0  0  0  0  0  0  0  0  0  0  0
   41.1076  -45.4994    9.3217 C   0  0  0  0  0  0  0  0  0  0  0  0
   39.9256  -45.7967   10.0013 C   0  0  0  0  0  0  0  0  0  0  0  0
   39.0468  -46.7000    9.4523 C   0  0  0  0  0  0  0  0  0  0  0  0
   39.3370  -47.3001    8.2453 C   0  0  0  0  0  0  0  0  0  0  0  0
   38.4237  -48.2033    7.7295 O   0  0  0  0  0  0  0  0  0  0  0  0
   38.7828  -49.0574    6.6751 C   0  0  0  0  0  0  0  0  0  0  0  0
   40.5147  -46.9865    7.5950 C   0  0  0  0  0  0  0  0  0  0  0  0
   45.2990  -45.1909    6.1352 C   0  0  0  0  0  0  0  0  0  0  0  0
  1  2  1  0  0  0  0
  2  3  1  0  0  0  0
  3  4  1  1  0  0  0
  3  5  1  0  0  0  0
  5  6  1  0  0  0  0
  6  7  2  0  0  0  0
  6  8  1  0  0  0  0
  8  9  2  0  0  0  0
  9 10  1  0  0  0  0
 10 11  2  0  0  0  0
 11 12  1  0  0  0  0
 12 13  1  0  0  0  0
 12 24  2  0  0  0  0
 13 14  1  0  0  0  0
 14 15  2  0  0  0  0
 14 16  1  0  0  0  0
 16 17  2  0  0  0  0
 17 18  1  0  0  0  0
 18 19  2  0  0  0  0
 19 20  1  0  0  0  0
 20 21  1  0  0  0  0
 20 23  2  0  0  0  0
 21 22  1  0  0  0  0
 23 16  1  0  0  0  0
 24  8  1  0  0  0  0
M  END
>  <CHROM.1>
175.80645767,166.00910334,60.54077726,174.87213579,7.53912136,-165.90796057
44.29536071,-46.03802518,6.26254197,0.28142509,-0.41038922,-2.31305928

>  <Name>
design_13

>  <RI>
0

>  <Rbt.Current_Directory>
/home/ziqiaoxu/icml18-jtnn/VAEdesign

>  <Rbt.Executable>
rbdock ($Id: //depot/dev/client3/rdock/2013.1/src/exe/rbdock.cxx#4 $)

>  <Rbt.Library>
libRbt.so (2013.1, Build901 2013/11/27)

>  <Rbt.Parameter_File>
/export/apps/rDock/src/rDock_2013.1_src//data/scripts/dock.prm

>  <Rbt.Receptor>
/home/ziqiaoxu/icml18-jtnn/VAEdesign/targets/RdRp-SARS-CoV-2/pocket_docking.prm

>  <SCORE>
-15.4434

>  <SCORE.INTER>
-16.6774

>  <SCORE.INTER.CONST>
1

>  <SCORE.INTER.POLAR>
-0.824621

>  <SCORE.INTER.REPUL>
0

>  <SCORE.INTER.ROT>
6

>  <SCORE.INTER.VDW>
-25.2737

>  <SCORE.INTER.norm>
-0.694891

>  <SCORE.INTRA>
1.23394

>  <SCORE.INTRA.DIHEDRAL>
9.37603

>  <SCORE.INTRA.DIHEDRAL.0>
2.25846

>  <SCORE.INTRA.POLAR>
0

>  <SCORE.INTRA.POLAR.0>
0

>  <SCORE.INTRA.REPUL>
0

>  <SCORE.INTRA.REPUL.0>
0

>  <SCORE.INTRA.VDW>
-3.45408

>  <SCORE.INTRA.VDW.0>
5.2506

>  <SCORE.INTRA.norm>
0.0514141

>  <SCORE.RESTR>
0

>  <SCORE.RESTR.CAVITY>
0

>  <SCORE.RESTR.norm>
0

>  <SCORE.SYSTEM>
0

>  <SCORE.SYSTEM.CONST>
0

>  <SCORE.SYSTEM.DIHEDRAL>
0

>  <SCORE.SYSTEM.norm>
0

>  <SCORE.heavy>
24

>  <SCORE.norm>
-0.643476

$$$$
design_0
 OpenBabel05252019093D

 23 24  0  0  0  0  0  0  0  0999 V2000
   38.8320  -49.1999    6.4186 C   0  0  0  0  0  0  0  0  0  0  0  0
   39.7666  -48.0439    6.5289 C   0  0  0  0  0  0  0  0  0  0  0  0
   40.3719  -47.5137    5.4090 C   0  0  0  0  0  0  0  0  0  0  0  0
   41.2432  -46.4413    5.5120 C   0  0  0  0  0  0  0  0  0  0  0  0
   41.5474  -45.8556    6.7202 C   0  0  0  0  0  0  0  0  0  0  0  0
   42.6520  -44.4886    6.9037 S   0  0  0  0  0  0  0  0  0  0  0  0
   44.3514  -44.8732    6.5672 C   0  0  0  0  0  0  0  0  0  0  0  0
   44.6744  -45.1936    5.1571 C   0  0  0  0  0  0  0  0  0  0  0  0
   43.9691  -44.6718    4.2738 O   0  0  0  0  0  0  0  0  0  0  0  0
   45.7319  -46.0496    4.8199 N   0  0  0  0  0  0  0  0  0  0  0  0
   46.1686  -46.4533    3.5581 C   0  0  0  0  0  0  0  0  0  0  0  0
   47.3827  -47.1524    3.5023 C   0  0  0  0  0  0  0  0  0  0  0  0
   47.9397  -47.6036    2.3307 C   0  0  0  0  0  0  0  0  0  0  0  0
   47.2944  -47.3723    1.1297 C   0  0  0  0  0  0  0  0  0  0  0  0
   47.8581  -47.8441   -0.1428 C   0  0  0  0  0  0  0  0  0  0  0  0
   46.1025  -46.6873    1.1678 C   0  0  0  0  0  0  0  0  0  0  0  0
   45.2529  -46.3644   -0.3276 S   0  0  0  0  0  0  0  0  0  0  0  0
   43.5678  -45.8985   -0.0594 C   0  0  0  0  0  0  0  0  0  0  0  0
   45.3545  -47.5092   -1.2943 O   0  0  0  0  0  0  0  0  0  0  0  0
   45.9177  -45.1748   -1.0030 O   0  0  0  0  0  0  0  0  0  0  0  0
   45.5477  -46.2323    2.3835 C   0  0  0  0  0  0  0  0  0  0  0  0
   40.9361  -46.3900    7.8533 C   0  0  0  0  0  0  0  0  0  0  0  0
   40.0675  -47.4606    7.7417 C   0  0  0  0  0  0  0  0  0  0  0  0
  1  2  1  0  0  0  0
  2  3  2  0  0  0  0
  3  4  1  0  0  0  0
  4  5  2  0  0  0  0
  5  6  1  0  0  0  0
  5 22  1  0  0  0  0
  6  7  1  0  0  0  0
  7  8  1  0  0  0  0
  8  9  2  0  0  0  0
  8 10  1  0  0  0  0
 10 11  1  0  0  0  0
 11 12  2  0  0  0  0
 12 13  1  0  0  0  0
 13 14  2  0  0  0  0
 14 15  1  0  0  0  0
 14 16  1  0  0  0  0
 16 17  1  0  0  0  0
 16 21  2  0  0  0  0
 17 18  1  0  0  0  0
 17 19  2  0  0  0  0
 17 20  2  0  0  0  0
 21 11  1  0  0  0  0
 22 23  2  0  0  0  0
 23  2  1  0  0  0  0
M  END
>  <CHROM.1>
-68.54269730,67.85712622,28.77841340,170.31980722,163.85592708,44.04013957
-46.41293025,3.56219050,2.29784610,0.34532866,1.26092664

>  <Name>
design_0

>  <RI>
0

>  <Rbt.Current_Directory>
/home/ziqiaoxu/icml18-jtnn/VAEdesign

>  <Rbt.Executable>
rbdock ($Id: //depot/dev/client3/rdock/2013.1/src/exe/rbdock.cxx#4 $)

>  <Rbt.Library>
libRbt.so (2013.1, Build901 2013/11/27)

>  <Rbt.Parameter_File>
/export/apps/rDock/src/rDock_2013.1_src//data/scripts/dock.prm

>  <Rbt.Receptor>
/home/ziqiaoxu/icml18-jtnn/VAEdesign/targets/RdRp-SARS-CoV-2/pocket_docking.prm

>  <SCORE>
-17.8292

>  <SCORE.INTER>
-17.8691

>  <SCORE.INTER.CONST>
1

>  <SCORE.INTER.POLAR>
-0.88109

>  <SCORE.INTER.REPUL>
0

>  <SCORE.INTER.ROT>
5

>  <SCORE.INTER.VDW>
-25.2734

>  <SCORE.INTER.norm>
-0.776919

>  <SCORE.INTRA>
0.0399575

>  <SCORE.INTRA.DIHEDRAL>
-0.205918

>  <SCORE.INTRA.DIHEDRAL.0>
5.15099

>  <SCORE.INTRA.POLAR>
0

>  <SCORE.INTRA.POLAR.0>
0

>  <SCORE.INTRA.REPUL>
0

>  <SCORE.INTRA.REPUL.0>
0

>  <SCORE.INTRA.VDW>
0.142916

>  <SCORE.INTRA.VDW.0>
-0.866358

>  <SCORE.INTRA.norm>
0.00173728

>  <SCORE.RESTR>
0

>  <SCORE.RESTR.CAVITY>
0

>  <SCORE.RESTR.norm>
0

>  <SCORE.SYSTEM>
0

>  <SCORE.SYSTEM.CONST>
0

>  <SCORE.SYSTEM.DIHEDRAL>
0

>  <SCORE.SYSTEM.norm>
0

>  <SCORE.heavy>
23

>  <SCORE.norm>
-0.775182

$$$$
design_15
 OpenBabel05252019093D

 25 26  0  0  0  0  0  0  0  0999 V2000
   40.8741  -44.3467   10.5481 C   0  0  0  0  0  0  0  0  0  0  0  0
   39.9470  -44.9620    9.5381 C   0  0  0  0  0  0  0  0  0  0  0  0
   39.4826  -46.2545    9.7220 C   0  0  0  0  0  0  0  0  0  0  0  0
   38.6199  -46.8704    8.8033 C   0  0  0  0  0  0  0  0  0  0  0  0
   38.2459  -46.1480    7.7009 C   0  0  0  0  0  0  0  0  0  0  0  0
   38.6884  -44.8646    7.4858 C   0  0  0  0  0  0  0  0  0  0  0  0
   38.3261  -44.1131    6.2552 C   0  0  0  0  0  0  0  0  0  0  0  0
   36.8231  -44.3063    6.0059 C   0  0  0  0  0  0  0  0  0  0  0  0
   38.9834  -44.9138    5.1121 C   0  0  0  0  0  0  0  0  0  0  0  0
   39.5458  -44.2759    8.4219 C   0  0  0  0  0  0  0  0  0  0  0  0
   39.9380  -42.9227    8.3074 N   0  0  0  0  0  0  0  0  0  0  0  0
   39.5155  -41.8723    9.2329 C   0  0  0  0  0  0  0  0  0  0  0  0
   38.7678  -42.2403   10.1463 O   0  0  0  0  0  0  0  0  0  0  0  0
   39.9754  -40.5764    9.0244 N   0  0  0  0  0  0  0  0  0  0  0  0
   40.4198  -39.3205    8.8240 C   0  0  0  0  0  0  0  0  0  0  0  0
   41.3227  -39.0165    7.6418 C   0  0  0  0  0  0  0  0  0  0  0  0
   40.6484  -39.1668    6.3488 C   0  0  0  0  0  0  0  0  0  0  0  0
   40.8061  -40.1474    5.5879 O   0  0  0  0  0  0  0  0  0  0  0  0
   39.7584  -38.1453    5.9208 N   0  0  0  0  0  0  0  0  0  0  0  0
   39.0461  -38.2179    4.6824 C   0  0  0  0  0  0  0  0  0  0  0  0
   39.7818  -37.6026    3.5738 C   0  0  0  0  0  0  0  0  0  0  0  0
   39.4504  -36.4552    2.9259 C   0  0  0  0  0  0  0  0  0  0  0  0
   40.3936  -36.2374    1.9655 C   0  0  0  0  0  0  0  0  0  0  0  0
   41.2991  -37.2833    2.0546 C   0  0  0  0  0  0  0  0  0  0  0  0
   40.8931  -38.0677    3.0237 O   0  0  0  0  0  0  0  0  0  0  0  0
  1  2  1  0  0  0  0
  2  3  2  0  0  0  0
  3  4  1  0  0  0  0
  4  5  2  0  0  0  0
  5  6  1  0  0  0  0
  6  7  1  0  0  0  0
  6 10  2  0  0  0  0
  7  8  1  0  0  0  0
  7  9  1  0  0  0  0
 10 11  1  0  0  0  0
 10  2  1  0  0  0  0
 11 12  1  0  0  0  0
 12 13  2  0  0  0  0
 12 14  1  0  0  0  0
 14 15  1  0  0  0  0
 15 16  1  0  0  0  0
 16 17  1  0  0  0  0
 17 18  2  0  0  0  0
 17 19  1  0  0  0  0
 19 20  1  0  0  0  0
 20 21  1  0  0  0  0
 21 22  2  0  0  0  0
 22 23  1  0  0  0  0
 23 24  2  0  0  0  0
 24 25  1  0  0  0  0
 25 21  1  0  0  0  0
M  END
>  <CHROM.1>
45.41872195,-63.40878765,-176.45410197,66.96452099,-103.04018282,-90.69709408
-110.79605141,39.66967257,-41.49398293,6.76015837,-1.94487125,-1.20143543
-0.94251456

>  <Name>
design_15

>  <RI>
0

>  <Rbt.Current_Directory>
/home/ziqiaoxu/icml18-jtnn/VAEdesign

>  <Rbt.Executable>
rbdock ($Id: //depot/dev/client3/rdock/2013.1/src/exe/rbdock.cxx#4 $)

>  <Rbt.Library>
libRbt.so (2013.1, Build901 2013/11/27)

>  <Rbt.Parameter_File>
/export/apps/rDock/src/rDock_2013.1_src//data/scripts/dock.prm

>  <Rbt.Receptor>
/home/ziqiaoxu/icml18-jtnn/VAEdesign/targets/RdRp-SARS-CoV-2/pocket_docking.prm

>  <SCORE>
-19.4461

>  <SCORE.INTER>
-16.1173

>  <SCORE.INTER.CONST>
1

>  <SCORE.INTER.POLAR>
-0.954783

>  <SCORE.INTER.REPUL>
0

>  <SCORE.INTER.ROT>
7

>  <SCORE.INTER.VDW>
-25.2711

>  <SCORE.INTER.norm>
-0.644693

>  <SCORE.INTRA>
-3.32875

>  <SCORE.INTRA.DIHEDRAL>
-2.45202

>  <SCORE.INTRA.DIHEDRAL.0>
17.0545

>  <SCORE.INTRA.POLAR>
0

>  <SCORE.INTRA.POLAR.0>
0

>  <SCORE.INTRA.REPUL>
0

>  <SCORE.INTRA.REPUL.0>
0

>  <SCORE.INTRA.VDW>
-2.10274

>  <SCORE.INTRA.VDW.0>
1.54137

>  <SCORE.INTRA.norm>
-0.13315

>  <SCORE.RESTR>
0

>  <SCORE.RESTR.CAVITY>
0

>  <SCORE.RESTR.norm>
0

>  <SCORE.SYSTEM>
0

>  <SCORE.SYSTEM.CONST>
0

>  <SCORE.SYSTEM.DIHEDRAL>
0

>  <SCORE.SYSTEM.norm>
0

>  <SCORE.heavy>
25

>  <SCORE.norm>
-0.777843

$$$$
design_17
 OpenBabel05252019093D

 25 26  0  0  0  0  0  0  0  0999 V2000
   41.5243  -39.4742    1.0916 C   0  0  0  0  0  0  0  0  0  0  0  0
   40.7513  -38.7387    1.9431 N   0  0  0  0  0  0  0  0  0  0  0  0
   39.9819  -38.0066    2.7905 C   0  0  0  0  0  0  0  0  0  0  0  0
   39.2953  -36.9868    2.4931 O   0  0  0  0  0  0  0  0  0  0  0  0
   39.8851  -38.3915    4.2453 C   0  0  0  0  0  0  0  0  0  0  0  0
   40.2334  -39.6469    4.6610 C   0  0  0  0  0  0  0  0  0  0  0  0
   40.0954  -39.9621    6.0082 C   0  0  0  0  0  0  0  0  0  0  0  0
   39.6228  -39.0704    6.9532 C   0  0  0  0  0  0  0  0  0  0  0  0
   39.5339  -39.5030    8.2965 N   0  0  0  0  0  0  0  0  0  0  0  0
   39.4362  -40.8277    8.7319 C   0  0  0  0  0  0  0  0  0  0  0  0
   39.4392  -41.8281    7.9370 O   0  0  0  0  0  0  0  0  0  0  0  0
   39.3243  -41.1814   10.1044 N   0  0  0  0  0  0  0  0  0  0  0  0
   39.2418  -42.5456   10.5745 C   0  0  0  0  0  0  0  0  0  0  0  0
   40.2054  -43.4560    9.9087 C   0  0  0  0  0  0  0  0  0  0  0  0
   41.2287  -42.9725    9.3815 O   0  0  0  0  0  0  0  0  0  0  0  0
   39.9747  -44.8388    9.8679 N   0  0  0  0  0  0  0  0  0  0  0  0
   40.9287  -45.7060    9.2083 C   0  0  0  0  0  0  0  0  0  0  0  0
   40.2802  -46.6897    8.3301 C   0  0  0  0  0  0  0  0  0  0  0  0
   40.8194  -46.8486    7.0610 C   0  0  0  0  0  0  0  0  0  0  0  0
   40.2743  -47.7470    6.1690 C   0  0  0  0  0  0  0  0  0  0  0  0
   39.1816  -48.5124    6.5070 C   0  0  0  0  0  0  0  0  0  0  0  0
   38.6514  -48.3497    7.7671 C   0  0  0  0  0  0  0  0  0  0  0  0
   39.2004  -47.4447    8.6676 C   0  0  0  0  0  0  0  0  0  0  0  0
   39.2848  -37.8266    6.5058 C   0  0  0  0  0  0  0  0  0  0  0  0
   39.4151  -37.4866    5.1552 C   0  0  0  0  0  0  0  0  0  0  0  0
  1  2  1  0  0  0  0
  2  3  1  0  0  0  0
  3  4  2  0  0  0  0
  3  5  1  0  0  0  0
  5  6  2  0  0  0  0
  6  7  1  0  0  0  0
  7  8  2  0  0  0  0
  8  9  1  0  0  0  0
  8 24  1  0  0  0  0
  9 10  1  0  0  0  0
 10 11  2  0  0  0  0
 10 12  1  0  0  0  0
 12 13  1  0  0  0  0
 13 14  1  0  0  0  0
 14 15  2  0  0  0  0
 14 16  1  0  0  0  0
 16 17  1  0  0  0  0
 17 18  1  0  0  0  0
 18 19  2  0  0  0  0
 19 20  1  0  0  0  0
 20 21  2  0  0  0  0
 21 22  1  0  0  0  0
 22 23  2  0  0  0  0
 23 18  1  0  0  0  0
 24 25  2  0  0  0  0
 25  5  1  0  0  0  0
M  END
>  <CHROM.1>
-18.60553971,-23.12330820,43.91212272,22.62384127,-134.30452326,133.57098978
39.92093676,-42.10424062,6.81276641,-1.42387109,-1.46014193,2.77031230

>  <Name>
design_17

>  <RI>
0

>  <Rbt.Current_Directory>
/home/ziqiaoxu/icml18-jtnn/VAEdesign

>  <Rbt.Executable>
rbdock ($Id: //depot/dev/client3/rdock/2013.1/src/exe/rbdock.cxx#4 $)

>  <Rbt.Library>
libRbt.so (2013.1, Build901 2013/11/27)

>  <Rbt.Parameter_File>
/export/apps/rDock/src/rDock_2013.1_src//data/scripts/dock.prm

>  <Rbt.Receptor>
/home/ziqiaoxu/icml18-jtnn/VAEdesign/targets/RdRp-SARS-CoV-2/pocket_docking.prm

>  <SCORE>
-22.128

>  <SCORE.INTER>
-23.0023

>  <SCORE.INTER.CONST>
1

>  <SCORE.INTER.POLAR>
-2.80506

>  <SCORE.INTER.REPUL>
0.0810132

>  <SCORE.INTER.ROT>
6

>  <SCORE.INTER.VDW>
-25.2702

>  <SCORE.INTER.norm>
-0.920093

>  <SCORE.INTRA>
0.870405

>  <SCORE.INTRA.DIHEDRAL>
-0.839987

>  <SCORE.INTRA.DIHEDRAL.0>
8.44861

>  <SCORE.INTRA.POLAR>
0

>  <SCORE.INTRA.POLAR.0>
0

>  <SCORE.INTRA.REPUL>
0

>  <SCORE.INTRA.REPUL.0>
0

>  <SCORE.INTRA.VDW>
1.2904

>  <SCORE.INTRA.VDW.0>
-1.4646

>  <SCORE.INTRA.norm>
0.0348162

>  <SCORE.RESTR>
0.00388252

>  <SCORE.RESTR.CAVITY>
0.00388252

>  <SCORE.RESTR.norm>
0.000155301

>  <SCORE.SYSTEM>
0

>  <SCORE.SYSTEM.CONST>
0

>  <SCORE.SYSTEM.DIHEDRAL>
0

>  <SCORE.SYSTEM.norm>
0

>  <SCORE.heavy>
25

>  <SCORE.norm>
-0.885121

$$$$
design_6
 OpenBabel05252019093D

 20 21  0  0  0  0  0  0  0  0999 V2000
   39.2391  -48.9507    6.4609 C   0  0  0  0  0  0  0  0  0  0  0  0
   39.7140  -47.8806    7.3955 C   0  0  0  0  0  0  0  0  0  0  0  0
   39.0029  -47.6118    8.5479 C   0  0  0  0  0  0  0  0  0  0  0  0
   39.4248  -46.6309    9.4212 C   0  0  0  0  0  0  0  0  0  0  0  0
   40.5596  -45.8778    9.1955 C   0  0  0  0  0  0  0  0  0  0  0  0
   40.9585  -44.8354   10.1722 C   0  0  0  0  0  0  0  0  0  0  0  0
   39.9392  -43.8061   10.1870 N   0  0  0  0  0  0  0  0  0  0  0  0
   40.0996  -42.5884    9.4921 C   0  0  0  0  0  0  0  0  0  0  0  0
   41.1190  -42.3033    8.8160 O   0  0  0  0  0  0  0  0  0  0  0  0
   39.0198  -41.5745    9.5481 C   0  0  0  0  0  0  0  0  0  0  0  0
   38.9269  -40.7889    8.2605 C   0  0  0  0  0  0  0  0  0  0  0  0
   40.2961  -39.5680    8.2468 S   0  0  0  0  0  0  0  0  0  0  0  0
   40.2441  -38.7772    6.6278 C   0  0  0  0  0  0  0  0  0  0  0  0
   40.0069  -37.4272    6.5144 C   0  0  0  0  0  0  0  0  0  0  0  0
   39.9733  -36.8504    5.2711 C   0  0  0  0  0  0  0  0  0  0  0  0
   40.1692  -37.5782    4.1310 C   0  0  0  0  0  0  0  0  0  0  0  0
   40.4041  -38.9336    4.2997 C   0  0  0  0  0  0  0  0  0  0  0  0
   40.4375  -39.4987    5.5114 N   0  0  0  0  0  0  0  0  0  0  0  0
   41.2648  -46.1477    8.0473 C   0  0  0  0  0  0  0  0  0  0  0  0
   40.8462  -47.1348    7.1622 C   0  0  0  0  0  0  0  0  0  0  0  0
  1  2  1  0  0  0  0
  2  3  2  0  0  0  0
  3  4  1  0  0  0  0
  4  5  2  0  0  0  0
  5  6  1  0  0  0  0
  5 19  1  0  0  0  0
  6  7  1  0  0  0  0
  7  8  1  0  0  0  0
  8  9  2  0  0  0  0
  8 10  1  0  0  0  0
 10 11  1  0  0  0  0
 11 12  1  0  0  0  0
 12 13  1  0  0  0  0
 13 14  2  0  0  0  0
 14 15  1  0  0  0  0
 15 16  2  0  0  0  0
 16 17  1  0  0  0  0
 17 18  2  0  0  0  0
 18 13  1  0  0  0  0
 19 20  2  0  0  0  0
 20  2  1  0  0  0  0
M  END
>  <CHROM.1>
-64.84539354,-100.40276661,-147.12288576,-76.82984042,174.36195347,117.66767275
40.09274393,-42.54519518,7.72993422,3.08036521,1.55146823,1.38009290

>  <Name>
design_6

>  <RI>
0

>  <Rbt.Current_Directory>
/home/ziqiaoxu/icml18-jtnn/VAEdesign

>  <Rbt.Executable>
rbdock ($Id: //depot/dev/client3/rdock/2013.1/src/exe/rbdock.cxx#4 $)

>  <Rbt.Library>
libRbt.so (2013.1, Build901 2013/11/27)

>  <Rbt.Parameter_File>
/export/apps/rDock/src/rDock_2013.1_src//data/scripts/dock.prm

>  <Rbt.Receptor>
/home/ziqiaoxu/icml18-jtnn/VAEdesign/targets/RdRp-SARS-CoV-2/pocket_docking.prm

>  <SCORE>
-17.2286

>  <SCORE.INTER>
-17.4403

>  <SCORE.INTER.CONST>
1

>  <SCORE.INTER.POLAR>
-1.05044

>  <SCORE.INTER.REPUL>
0

>  <SCORE.INTER.ROT>
6

>  <SCORE.INTER.VDW>
-25.2688

>  <SCORE.INTER.norm>
-0.872017

>  <SCORE.INTRA>
0.211702

>  <SCORE.INTRA.DIHEDRAL>
1.9515

>  <SCORE.INTRA.DIHEDRAL.0>
5.07138

>  <SCORE.INTRA.POLAR>
0

>  <SCORE.INTRA.POLAR.0>
0

>  <SCORE.INTRA.REPUL>
0

>  <SCORE.INTRA.REPUL.0>
0

>  <SCORE.INTRA.VDW>
-0.76405

>  <SCORE.INTRA.VDW.0>
-0.0275761

>  <SCORE.INTRA.norm>
0.0105851

>  <SCORE.RESTR>
0

>  <SCORE.RESTR.CAVITY>
0

>  <SCORE.RESTR.norm>
0

>  <SCORE.SYSTEM>
0

>  <SCORE.SYSTEM.CONST>
0

>  <SCORE.SYSTEM.DIHEDRAL>
0

>  <SCORE.SYSTEM.norm>
0

>  <SCORE.heavy>
20

>  <SCORE.norm>
-0.861432

$$$$
design_10
 OpenBabel05252019093D

 25 26  0  0  0  0  0  0  0  0999 V2000
   40.2747  -45.9084   10.7286 N   0  0  0  0  0  0  0  0  0  0  0  0
   40.8516  -45.8356    9.4388 C   0  0  0  0  0  0  0  0  0  0  0  0
   41.8663  -45.0968    9.3197 O   0  0  0  0  0  0  0  0  0  0  0  0
   40.3388  -46.5517    8.2851 C   0  0  0  0  0  0  0  0  0  0  0  0
   39.4178  -47.5601    8.4177 C   0  0  0  0  0  0  0  0  0  0  0  0
   38.9677  -48.2146    7.2832 C   0  0  0  0  0  0  0  0  0  0  0  0
   39.4544  -47.8402    6.0253 C   0  0  0  0  0  0  0  0  0  0  0  0
   40.3765  -46.8297    5.8833 C   0  0  0  0  0  0  0  0  0  0  0  0
   40.8412  -46.5191    4.5805 N   0  0  0  0  0  0  0  0  0  0  0  0
   41.7018  -45.4346    4.3006 C   0  0  0  0  0  0  0  0  0  0  0  0
   42.1016  -44.6652    5.1576 O   0  0  0  0  0  0  0  0  0  0  0  0
   42.1172  -45.2518    2.8754 C   0  0  0  0  0  0  0  0  0  0  0  0
   41.1203  -44.2940    2.2451 C   0  0  0  0  0  0  0  0  0  0  0  0
   41.5899  -43.1694    1.6259 N   0  0  0  0  0  0  0  0  0  0  0  0
   42.0553  -42.0536    1.0115 C   0  0  0  0  0  0  0  0  0  0  0  0
   41.4232  -41.0615    0.6498 O   0  0  0  0  0  0  0  0  0  0  0  0
   43.4877  -42.0165    0.7450 N   0  0  0  0  0  0  0  0  0  0  0  0
   44.1080  -40.9364    0.0910 C   0  0  0  0  0  0  0  0  0  0  0  0
   45.0499  -41.2656   -0.9073 C   0  0  0  0  0  0  0  0  0  0  0  0
   45.6921  -40.3068   -1.6383 C   0  0  0  0  0  0  0  0  0  0  0  0
   45.4565  -38.9619   -1.4401 C   0  0  0  0  0  0  0  0  0  0  0  0
   44.5511  -38.6204   -0.4811 C   0  0  0  0  0  0  0  0  0  0  0  0
   44.2896  -37.3222   -0.2452 F   0  0  0  0  0  0  0  0  0  0  0  0
   43.8934  -39.6029    0.2659 C   0  0  0  0  0  0  0  0  0  0  0  0
   40.8065  -46.1979    7.0207 C   0  0  0  0  0  0  0  0  0  0  0  0
  1  2  1  0  0  0  0
  2  3  2  0  0  0  0
  2  4  1  0  0  0  0
  4  5  2  0  0  0  0
  5  6  1  0  0  0  0
  6  7  2  0  0  0  0
  7  8  1  0  0  0  0
  8  9  1  0  0  0  0
  8 25  2  0  0  0  0
  9 10  1  0  0  0  0
 10 11  2  0  0  0  0
 10 12  1  0  0  0  0
 12 13  1  0  0  0  0
 13 14  1  0  0  0  0
 14 15  1  0  0  0  0
 15 16  2  0  0  0  0
 15 17  1  0  0  0  0
 17 18  1  0  0  0  0
 18 19  2  0  0  0  0
 19 20  1  0  0  0  0
 20 21  2  0  0  0  0
 21 22  1  0  0  0  0
 22 23  1  0  0  0  0
 22 24  2  0  0  0  0
 24 18  1  0  0  0  0
 25  4  1  0  0  0  0
M  END
>  <CHROM.1>
-13.30785515,174.68024406,92.37584629,125.57163358,-172.05811377,-135.67675030
42.08195823,-43.58062893,3.64310056,-2.39431221,-1.08877247,-1.65071314

>  <Name>
design_10

>  <RI>
0

>  <Rbt.Current_Directory>
/home/ziqiaoxu/icml18-jtnn/VAEdesign

>  <Rbt.Executable>
rbdock ($Id: //depot/dev/client3/rdock/2013.1/src/exe/rbdock.cxx#4 $)

>  <Rbt.Library>
libRbt.so (2013.1, Build901 2013/11/27)

>  <Rbt.Parameter_File>
/export/apps/rDock/src/rDock_2013.1_src//data/scripts/dock.prm

>  <Rbt.Receptor>
/home/ziqiaoxu/icml18-jtnn/VAEdesign/targets/RdRp-SARS-CoV-2/pocket_docking.prm

>  <SCORE>
-24.1514

>  <SCORE.INTER>
-24.2952

>  <SCORE.INTER.CONST>
1

>  <SCORE.INTER.POLAR>
-3.08452

>  <SCORE.INTER.REPUL>
0.0120207

>  <SCORE.INTER.ROT>
6

>  <SCORE.INTER.VDW>
-25.268

>  <SCORE.INTER.norm>
-0.971809

>  <SCORE.INTRA>
0.143817

>  <SCORE.INTRA.DIHEDRAL>
5.29358

>  <SCORE.INTRA.DIHEDRAL.0>
9.12468

>  <SCORE.INTRA.POLAR>
0

>  <SCORE.INTRA.POLAR.0>
0

>  <SCORE.INTRA.REPUL>
0

>  <SCORE.INTRA.REPUL.0>
0

>  <SCORE.INTRA.VDW>
-2.50298

>  <SCORE.INTRA.VDW.0>
1.52191

>  <SCORE.INTRA.norm>
0.00575267

>  <SCORE.RESTR>
0

>  <SCORE.RESTR.CAVITY>
0

>  <SCORE.RESTR.norm>
0

>  <SCORE.SYSTEM>
0

>  <SCORE.SYSTEM.CONST>
0

>  <SCORE.SYSTEM.DIHEDRAL>
0

>  <SCORE.SYSTEM.norm>
0

>  <SCORE.heavy>
25

>  <SCORE.norm>
-0.966056

$$$$
design_9
 OpenBabel05252019093D

 26 27  0  0  0  0  0  0  0  0999 V2000
   39.4272  -42.4768   10.1430 C   0  0  0  0  0  0  0  0  0  0  0  0
   40.4564  -43.5877   10.3072 C   0  0  0  0  0  0  0  0  0  0  0  0
   40.3892  -44.4006    9.1227 N   0  0  0  0  0  0  0  0  0  0  0  0
   40.0970  -45.7756    9.2133 C   0  0  0  0  0  0  0  0  0  0  0  0
   39.8970  -46.2694   10.3591 O   0  0  0  0  0  0  0  0  0  0  0  0
   40.0119  -46.6619    8.0632 C   0  0  0  0  0  0  0  0  0  0  0  0
   39.4138  -47.9014    8.1371 C   0  0  0  0  0  0  0  0  0  0  0  0
   39.3522  -48.7167    7.0280 C   0  0  0  0  0  0  0  0  0  0  0  0
   39.8923  -48.2828    5.8493 C   0  0  0  0  0  0  0  0  0  0  0  0
   40.5193  -47.0242    5.7069 C   0  0  0  0  0  0  0  0  0  0  0  0
   41.0340  -46.6270    4.4754 N   0  0  0  0  0  0  0  0  0  0  0  0
   41.6532  -45.3873    4.1969 C   0  0  0  0  0  0  0  0  0  0  0  0
   41.8383  -44.4757    5.0161 O   0  0  0  0  0  0  0  0  0  0  0  0
   42.0976  -45.1731    2.8704 N   0  0  0  0  0  0  0  0  0  0  0  0
   42.7470  -43.9682    2.4659 C   0  0  0  0  0  0  0  0  0  0  0  0
   42.0157  -43.3356    1.3148 C   0  0  0  0  0  0  0  0  0  0  0  0
   42.9221  -42.5910    0.4712 N   0  0  0  0  0  0  0  0  0  0  0  0
   43.1675  -41.2343    0.6585 C   0  0  0  0  0  0  0  0  0  0  0  0
   42.6093  -40.5935    1.5857 O   0  0  0  0  0  0  0  0  0  0  0  0
   44.0871  -40.4458   -0.1989 C   0  0  0  0  0  0  0  0  0  0  0  0
   45.0080  -41.0598   -1.0080 C   0  0  0  0  0  0  0  0  0  0  0  0
   45.8468  -40.2958   -1.7862 C   0  0  0  0  0  0  0  0  0  0  0  0
   45.8111  -38.9194   -1.7972 C   0  0  0  0  0  0  0  0  0  0  0  0
   44.8750  -38.3367   -0.9734 C   0  0  0  0  0  0  0  0  0  0  0  0
   44.0295  -39.0727   -0.1900 C   0  0  0  0  0  0  0  0  0  0  0  0
   40.5560  -46.2507    6.8327 C   0  0  0  0  0  0  0  0  0  0  0  0
  1  2  1  0  0  0  0
  2  3  1  0  0  0  0
  3  4  1  0  0  0  0
  4  5  2  0  0  0  0
  4  6  1  0  0  0  0
  6  7  2  0  0  0  0
  7  8  1  0  0  0  0
  8  9  2  0  0  0  0
  9 10  1  0  0  0  0
 10 11  1  0  0  0  0
 10 26  2  0  0  0  0
 11 12  1  0  0  0  0
 12 13  2  0  0  0  0
 12 14  1  0  0  0  0
 14 15  1  0  0  0  0
 15 16  1  0  0  0  0
 16 17  1  0  0  0  0
 17 18  1  0  0  0  0
 18 19  2  0  0  0  0
 18 20  1  0  0  0  0
 20 21  2  0  0  0  0
 21 22  1  0  0  0  0
 22 23  2  0  0  0  0
 23 24  1  0  0  0  0
 24 25  2  0  0  0  0
 25 20  1  0  0  0  0
 26  6  1  0  0  0  0
M  END
>  <CHROM.1>
-121.49680564,-163.72459865,178.44446793,-123.86672235,-150.40640550,-92.15402948
-16.94777941,41.88623677,-43.80674058,4.21026053,-3.06301910,-1.17705567
-2.47611467

>  <Name>
design_9

>  <RI>
0

>  <Rbt.Current_Directory>
/home/ziqiaoxu/icml18-jtnn/VAEdesign

>  <Rbt.Executable>
rbdock ($Id: //depot/dev/client3/rdock/2013.1/src/exe/rbdock.cxx#4 $)

>  <Rbt.Library>
libRbt.so (2013.1, Build901 2013/11/27)

>  <Rbt.Parameter_File>
/export/apps/rDock/src/rDock_2013.1_src//data/scripts/dock.prm

>  <Rbt.Receptor>
/home/ziqiaoxu/icml18-jtnn/VAEdesign/targets/RdRp-SARS-CoV-2/pocket_docking.prm

>  <SCORE>
-20.4503

>  <SCORE.INTER>
-20.0018

>  <SCORE.INTER.CONST>
1

>  <SCORE.INTER.POLAR>
-2.09852

>  <SCORE.INTER.REPUL>
0

>  <SCORE.INTER.ROT>
7

>  <SCORE.INTER.VDW>
-25.2668

>  <SCORE.INTER.norm>
-0.7693

>  <SCORE.INTRA>
-0.448479

>  <SCORE.INTRA.DIHEDRAL>
3.50421

>  <SCORE.INTRA.DIHEDRAL.0>
4.88596

>  <SCORE.INTRA.POLAR>
0

>  <SCORE.INTRA.POLAR.0>
0

>  <SCORE.INTRA.REPUL>
0

>  <SCORE.INTRA.REPUL.0>
0

>  <SCORE.INTRA.VDW>
-2.20058

>  <SCORE.INTRA.VDW.0>
1.19123

>  <SCORE.INTRA.norm>
-0.0172492

>  <SCORE.RESTR>
0

>  <SCORE.RESTR.CAVITY>
0

>  <SCORE.RESTR.norm>
0

>  <SCORE.SYSTEM>
0

>  <SCORE.SYSTEM.CONST>
0

>  <SCORE.SYSTEM.DIHEDRAL>
0

>  <SCORE.SYSTEM.norm>
0

>  <SCORE.heavy>
26

>  <SCORE.norm>
-0.786549

$$$$
design_1
 OpenBabel05252019093D

 26 28  0  0  0  0  0  0  0  0999 V2000
   39.6127  -46.4747   10.2925 N   0  0  0  0  0  0  0  0  0  0  0  0
   38.9374  -46.7407    9.0721 C   0  0  0  0  0  0  0  0  0  0  0  0
   37.7231  -47.0581    9.0831 O   0  0  0  0  0  0  0  0  0  0  0  0
   39.6780  -46.6374    7.8237 C   0  0  0  0  0  0  0  0  0  0  0  0
   39.1824  -47.0919    6.6287 C   0  0  0  0  0  0  0  0  0  0  0  0
   39.9195  -46.9688    5.4917 C   0  0  0  0  0  0  0  0  0  0  0  0
   41.1915  -46.3898    5.4606 C   0  0  0  0  0  0  0  0  0  0  0  0
   41.9010  -46.2717    4.2568 N   0  0  0  0  0  0  0  0  0  0  0  0
   42.9932  -45.4577    3.9757 C   0  0  0  0  0  0  0  0  0  0  0  0
   43.5206  -44.6872    4.7950 O   0  0  0  0  0  0  0  0  0  0  0  0
   43.5799  -45.5071    2.5933 C   0  0  0  0  0  0  0  0  0  0  0  0
   42.5489  -45.2380    1.5365 C   0  0  0  0  0  0  0  0  0  0  0  0
   41.9176  -43.9322    1.6718 C   0  0  0  0  0  0  0  0  0  0  0  0
   40.7867  -43.8113    2.1973 O   0  0  0  0  0  0  0  0  0  0  0  0
   42.5766  -42.6996    1.1993 C   0  0  0  0  0  0  0  0  0  0  0  0
   42.0281  -41.4551    1.4093 C   0  0  0  0  0  0  0  0  0  0  0  0
   42.6470  -40.2992    0.9647 C   0  0  0  0  0  0  0  0  0  0  0  0
   43.8334  -40.3865    0.2994 C   0  0  0  0  0  0  0  0  0  0  0  0
   44.4019  -41.6011    0.0756 C   0  0  0  0  0  0  0  0  0  0  0  0
   43.7774  -42.7698    0.5245 C   0  0  0  0  0  0  0  0  0  0  0  0
   45.6801  -41.7608   -0.6353 C   0  0  0  0  0  0  0  0  0  0  0  0
   46.0310  -40.6471   -1.5539 C   0  0  0  0  0  0  0  0  0  0  0  0
   45.0196  -39.5444   -1.6206 C   0  0  0  0  0  0  0  0  0  0  0  0
   44.5647  -39.1754   -0.2133 C   0  0  0  0  0  0  0  0  0  0  0  0
   41.6905  -45.9355    6.6435 C   0  0  0  0  0  0  0  0  0  0  0  0
   40.9275  -46.0636    7.8185 C   0  0  0  0  0  0  0  0  0  0  0  0
  1  2  1  0  0  0  0
  2  3  2  0  0  0  0
  2  4  1  0  0  0  0
  4  5  2  0  0  0  0
  5  6  1  0  0  0  0
  6  7  2  0  0  0  0
  7  8  1  0  0  0  0
  7 25  1  0  0  0  0
  8  9  1  0  0  0  0
  9 10  2  0  0  0  0
  9 11  1  0  0  0  0
 11 12  1  0  0  0  0
 12 13  1  0  0  0  0
 13 14  2  0  0  0  0
 13 15  1  0  0  0  0
 15 16  2  0  0  0  0
 16 17  1  0  0  0  0
 17 18  2  0  0  0  0
 18 19  1  0  0  0  0
 19 20  2  0  0  0  0
 19 21  1  0  0  0  0
 20 15  1  0  0  0  0
 21 22  1  0  0  0  0
 22 23  1  0  0  0  0
 23 24  1  0  0  0  0
 24 18  1  0  0  0  0
 25 26  2  0  0  0  0
 26  4  1  0  0  0  0
M  END
>  <CHROM.1>
168.54899646,162.73304210,54.96419740,59.63917330,-100.16534267,-175.31345454
42.16489742,-44.04797384,3.50065874,2.32218775,-0.90118749,2.81048292

>  <Name>
design_1

>  <RI>
0

>  <Rbt.Current_Directory>
/home/ziqiaoxu/icml18-jtnn/VAEdesign

>  <Rbt.Executable>
rbdock ($Id: //depot/dev/client3/rdock/2013.1/src/exe/rbdock.cxx#4 $)

>  <Rbt.Library>
libRbt.so (2013.1, Build901 2013/11/27)

>  <Rbt.Parameter_File>
/export/apps/rDock/src/rDock_2013.1_src//data/scripts/dock.prm

>  <Rbt.Receptor>
/home/ziqiaoxu/icml18-jtnn/VAEdesign/targets/RdRp-SARS-CoV-2/pocket_docking.prm

>  <SCORE>
-26.6472

>  <SCORE.INTER>
-24.439

>  <SCORE.INTER.CONST>
1

>  <SCORE.INTER.POLAR>
-3.10953

>  <SCORE.INTER.REPUL>
0

>  <SCORE.INTER.ROT>
6

>  <SCORE.INTER.VDW>
-25.2666

>  <SCORE.INTER.norm>
-0.939962

>  <SCORE.INTRA>
-2.20819

>  <SCORE.INTRA.DIHEDRAL>
1.34859

>  <SCORE.INTRA.DIHEDRAL.0>
2.93241

>  <SCORE.INTRA.POLAR>
0

>  <SCORE.INTRA.POLAR.0>
0

>  <SCORE.INTRA.REPUL>
0

>  <SCORE.INTRA.REPUL.0>
0

>  <SCORE.INTRA.VDW>
-2.88248

>  <SCORE.INTRA.VDW.0>
2.1703

>  <SCORE.INTRA.norm>
-0.0849303

>  <SCORE.RESTR>
0

>  <SCORE.RESTR.CAVITY>
0

>  <SCORE.RESTR.norm>
0

>  <SCORE.SYSTEM>
0

>  <SCORE.SYSTEM.CONST>
0

>  <SCORE.SYSTEM.DIHEDRAL>
0

>  <SCORE.SYSTEM.norm>
0

>  <SCORE.heavy>
26

>  <SCORE.norm>
-1.02489

$$$$
design_6
 OpenBabel05252019093D

 22 24  0  0  0  0  0  0  0  0999 V2000
   40.1178  -37.2214    5.1960 C   0  0  0  0  0  0  0  0  0  0  0  0
   40.1429  -38.2967    6.2063 C   0  0  0  0  0  0  0  0  0  0  0  0
   40.3949  -37.9902    7.5252 C   0  0  0  0  0  0  0  0  0  0  0  0
   40.4121  -39.0191    8.4529 C   0  0  0  0  0  0  0  0  0  0  0  0
   40.1863  -40.3311    8.0980 C   0  0  0  0  0  0  0  0  0  0  0  0
   40.2046  -41.4192    9.0712 C   0  0  0  0  0  0  0  0  0  0  0  0
   40.5124  -42.7123    8.8732 N   0  0  0  0  0  0  0  0  0  0  0  0
   40.4169  -43.4197   10.0126 C   0  0  0  0  0  0  0  0  0  0  0  0
   40.6763  -44.8911   10.2077 C   0  0  0  0  0  0  0  0  0  0  0  0
   39.5286  -45.5907    9.6762 N   0  0  0  0  0  0  0  0  0  0  0  0
   39.6298  -46.1006    8.3419 C   0  0  0  0  0  0  0  0  0  0  0  0
   40.6500  -45.9555    7.6639 O   0  0  0  0  0  0  0  0  0  0  0  0
   38.4480  -46.8092    7.8220 C   0  0  0  0  0  0  0  0  0  0  0  0
   37.6896  -45.8258    6.9629 C   0  0  0  0  0  0  0  0  0  0  0  0
   37.9892  -44.5077    6.7424 C   0  0  0  0  0  0  0  0  0  0  0  0
   37.1740  -43.8178    5.9396 C   0  0  0  0  0  0  0  0  0  0  0  0
   36.1057  -44.4804    5.4016 C   0  0  0  0  0  0  0  0  0  0  0  0
   36.2730  -46.0561    6.0369 S   0  0  0  0  0  0  0  0  0  0  0  0
   40.0334  -42.5262   10.9565 N   0  0  0  0  0  0  0  0  0  0  0  0
   39.9087  -41.3258   10.3795 N   0  0  0  0  0  0  0  0  0  0  0  0
   39.9375  -40.5979    6.7683 C   0  0  0  0  0  0  0  0  0  0  0  0
   39.9110  -39.6016    5.8088 C   0  0  0  0  0  0  0  0  0  0  0  0
  1  2  1  0  0  0  0
  2  3  2  0  0  0  0
  3  4  1  0  0  0  0
  4  5  2  0  0  0  0
  5  6  1  0  0  0  0
  5 21  1  0  0  0  0
  6  7  2  0  0  0  0
  7  8  1  0  0  0  0
  8  9  1  0  0  0  0
  8 19  2  0  0  0  0
  9 10  1  0  0  0  0
 10 11  1  0  0  0  0
 11 12  2  0  0  0  0
 11 13  1  0  0  0  0
 13 14  1  0  0  0  0
 14 15  2  0  0  0  0
 15 16  1  0  0  0  0
 16 17  2  0  0  0  0
 17 18  1  0  0  0  0
 18 14  1  0  0  0  0
 19 20  1  0  0  0  0
 20  6  1  0  0  0  0
 21 22  2  0  0  0  0
 22  2  1  0  0  0  0
M  END
>  <CHROM.1>
-151.92694772,-76.50791417,97.22095228,98.97766768,-2.67893499,39.20789175
-42.89214335,7.74412831,1.02999003,-0.92146107,-0.45485269

>  <Name>
design_6

>  <RI>
0

>  <Rbt.Current_Directory>
/home/ziqiaoxu/icml18-jtnn/VAEdesign

>  <Rbt.Executable>
rbdock ($Id: //depot/dev/client3/rdock/2013.1/src/exe/rbdock.cxx#4 $)

>  <Rbt.Library>
libRbt.so (2013.1, Build901 2013/11/27)

>  <Rbt.Parameter_File>
/export/apps/rDock/src/rDock_2013.1_src//data/scripts/dock.prm

>  <Rbt.Receptor>
/home/ziqiaoxu/icml18-jtnn/VAEdesign/targets/RdRp-SARS-CoV-2/pocket_docking.prm

>  <SCORE>
-21.2464

>  <SCORE.INTER>
-21.5146

>  <SCORE.INTER.CONST>
1

>  <SCORE.INTER.POLAR>
-1.95556

>  <SCORE.INTER.REPUL>
0

>  <SCORE.INTER.ROT>
5

>  <SCORE.INTER.VDW>
-25.2657

>  <SCORE.INTER.norm>
-0.977935

>  <SCORE.INTRA>
0.254514

>  <SCORE.INTRA.DIHEDRAL>
1.48048

>  <SCORE.INTRA.DIHEDRAL.0>
5.2452

>  <SCORE.INTRA.POLAR>
0

>  <SCORE.INTRA.POLAR.0>
0

>  <SCORE.INTRA.REPUL>
0

>  <SCORE.INTRA.REPUL.0>
0

>  <SCORE.INTRA.VDW>
-0.485728

>  <SCORE.INTRA.VDW.0>
-1.56185

>  <SCORE.INTRA.norm>
0.0115688

>  <SCORE.RESTR>
0.0136698

>  <SCORE.RESTR.CAVITY>
0.0136698

>  <SCORE.RESTR.norm>
0.000621356

>  <SCORE.SYSTEM>
0

>  <SCORE.SYSTEM.CONST>
0

>  <SCORE.SYSTEM.DIHEDRAL>
0

>  <SCORE.SYSTEM.norm>
0

>  <SCORE.heavy>
22

>  <SCORE.norm>
-0.965745

$$$$
design_8
 OpenBabel05252019093D

 25 28  0  0  0  0  0  0  0  0999 V2000
   49.1137  -48.1332    0.2985 C   0  0  0  0  0  0  0  0  0  0  0  0
   48.4453  -47.5680    1.4953 C   0  0  0  0  0  0  0  0  0  0  0  0
   48.9736  -47.6097    2.7348 N   0  0  0  0  0  0  0  0  0  0  0  0
   48.1592  -47.0284    3.5975 N   0  0  0  0  0  0  0  0  0  0  0  0
   47.0633  -46.5894    2.9066 C   0  0  0  0  0  0  0  0  0  0  0  0
   45.9547  -45.8535    3.5420 C   0  0  0  0  0  0  0  0  0  0  0  0
   44.9937  -45.2004    2.7988 C   0  0  0  0  0  0  0  0  0  0  0  0
   43.9636  -44.4621    3.3760 C   0  0  0  0  0  0  0  0  0  0  0  0
   43.8956  -44.3744    4.7737 C   0  0  0  0  0  0  0  0  0  0  0  0
   44.8367  -45.0143    5.5076 C   0  0  0  0  0  0  0  0  0  0  0  0
   44.8591  -44.9128    6.9853 C   0  0  0  0  0  0  0  0  0  0  0  0
   43.6346  -45.3466    7.5630 N   0  0  0  0  0  0  0  0  0  0  0  0
   42.8651  -44.7342    8.5704 C   0  0  0  0  0  0  0  0  0  0  0  0
   43.1219  -43.6370    9.1450 O   0  0  0  0  0  0  0  0  0  0  0  0
   41.6289  -45.3844    9.0310 C   0  0  0  0  0  0  0  0  0  0  0  0
   41.0321  -45.0780   10.2562 C   0  0  0  0  0  0  0  0  0  0  0  0
   39.8908  -45.7819   10.2847 N   0  0  0  0  0  0  0  0  0  0  0  0
   39.7255  -46.5086    9.1726 C   0  0  0  0  0  0  0  0  0  0  0  0
   38.7231  -47.3911    8.7574 C   0  0  0  0  0  0  0  0  0  0  0  0
   38.8349  -48.0302    7.5341 C   0  0  0  0  0  0  0  0  0  0  0  0
   39.9278  -47.7927    6.7312 C   0  0  0  0  0  0  0  0  0  0  0  0
   40.9148  -46.9216    7.1336 C   0  0  0  0  0  0  0  0  0  0  0  0
   40.8165  -46.2713    8.3637 C   0  0  0  0  0  0  0  0  0  0  0  0
   45.8674  -45.7561    4.8915 C   0  0  0  0  0  0  0  0  0  0  0  0
   47.2695  -46.9329    1.6448 N   0  0  0  0  0  0  0  0  0  0  0  0
  1  2  1  0  0  0  0
  2  3  2  0  0  0  0
  3  4  1  0  0  0  0
  4  5  1  0  0  0  0
  5  6  1  0  0  0  0
  5 25  2  0  0  0  0
  6  7  2  0  0  0  0
  7  8  1  0  0  0  0
  8  9  2  0  0  0  0
  9 10  1  0  0  0  0
 10 11  1  0  0  0  0
 10 24  2  0  0  0  0
 11 12  1  0  0  0  0
 12 13  1  0  0  0  0
 13 14  2  0  0  0  0
 13 15  1  0  0  0  0
 15 16  2  0  0  0  0
 16 17  1  0  0  0  0
 17 18  1  0  0  0  0
 18 19  2  0  0  0  0
 19 20  1  0  0  0  0
 20 21  2  0  0  0  0
 21 22  1  0  0  0  0
 22 23  2  0  0  0  0
 23 15  1  0  0  0  0
 23 18  1  0  0  0  0
 24  6  1  0  0  0  0
 25  2  1  0  0  0  0
M  END
>  <CHROM.1>
167.28176238,57.46537870,-134.03064536,160.53293397,43.83202433,-46.09032781
5.88310510,0.59567138,-0.47295488,-2.28016021

>  <Name>
design_8

>  <RI>
0

>  <Rbt.Current_Directory>
/home/ziqiaoxu/icml18-jtnn/VAEdesign

>  <Rbt.Executable>
rbdock ($Id: //depot/dev/client3/rdock/2013.1/src/exe/rbdock.cxx#4 $)

>  <Rbt.Library>
libRbt.so (2013.1, Build901 2013/11/27)

>  <Rbt.Parameter_File>
/export/apps/rDock/src/rDock_2013.1_src//data/scripts/dock.prm

>  <Rbt.Receptor>
/home/ziqiaoxu/icml18-jtnn/VAEdesign/targets/RdRp-SARS-CoV-2/pocket_docking.prm

>  <SCORE>
-24.0181

>  <SCORE.INTER>
-21.7944

>  <SCORE.INTER.CONST>
1

>  <SCORE.INTER.POLAR>
-1.74417

>  <SCORE.INTER.REPUL>
0

>  <SCORE.INTER.ROT>
4

>  <SCORE.INTER.VDW>
-25.2642

>  <SCORE.INTER.norm>
-0.871776

>  <SCORE.INTRA>
-2.22526

>  <SCORE.INTRA.DIHEDRAL>
-6.26859

>  <SCORE.INTRA.DIHEDRAL.0>
10.3026

>  <SCORE.INTRA.POLAR>
0

>  <SCORE.INTRA.POLAR.0>
0

>  <SCORE.INTRA.REPUL>
0

>  <SCORE.INTRA.REPUL.0>
0

>  <SCORE.INTRA.VDW>
0.909031

>  <SCORE.INTRA.VDW.0>
-2.16773

>  <SCORE.INTRA.norm>
-0.0890105

>  <SCORE.RESTR>
0.00151887

>  <SCORE.RESTR.CAVITY>
0.00151887

>  <SCORE.RESTR.norm>
6.07548e-05

>  <SCORE.SYSTEM>
0

>  <SCORE.SYSTEM.CONST>
0

>  <SCORE.SYSTEM.DIHEDRAL>
0

>  <SCORE.SYSTEM.norm>
0

>  <SCORE.heavy>
25

>  <SCORE.norm>
-0.960726

$$$$
design_18
 OpenBabel05252019093D

 26 28  0  0  0  0  0  0  0  0999 V2000
   39.9863  -46.3656   10.4361 N   0  0  0  0  0  0  0  0  0  0  0  0
   40.6222  -46.1022    9.1329 C   0  0  0  0  0  0  0  0  0  0  0  0
   41.4119  -45.1693    9.1790 O   0  0  0  0  0  0  0  0  0  0  0  0
   40.2194  -46.9589    8.0588 C   0  0  0  0  0  0  0  0  0  0  0  0
   39.1551  -47.8281    8.2100 C   0  0  0  0  0  0  0  0  0  0  0  0
   38.6793  -48.6343    7.2284 C   0  0  0  0  0  0  0  0  0  0  0  0
   39.2486  -48.6333    5.9798 C   0  0  0  0  0  0  0  0  0  0  0  0
   40.3229  -47.7751    5.7847 C   0  0  0  0  0  0  0  0  0  0  0  0
   40.8114  -46.9513    6.7852 C   0  0  0  0  0  0  0  0  0  0  0  0
   41.9843  -46.1460    6.5803 N   0  0  0  0  0  0  0  0  0  0  0  0
   42.6336  -45.9270    5.3608 C   0  0  0  0  0  0  0  0  0  0  0  0
   42.1932  -46.4349    4.2970 O   0  0  0  0  0  0  0  0  0  0  0  0
   43.8424  -45.1100    5.2381 C   0  0  0  0  0  0  0  0  0  0  0  0
   44.9318  -45.3829    6.0997 N   0  0  0  0  0  0  0  0  0  0  0  0
   45.2293  -44.4987    7.1879 C   0  0  0  0  0  0  0  0  0  0  0  0
   44.2512  -44.2734    8.1242 C   0  0  0  0  0  0  0  0  0  0  0  0
   44.4899  -43.4573    9.2009 C   0  0  0  0  0  0  0  0  0  0  0  0
   45.7357  -42.8638    9.3294 C   0  0  0  0  0  0  0  0  0  0  0  0
   46.7017  -43.1019    8.3825 C   0  0  0  0  0  0  0  0  0  0  0  0
   46.4865  -43.9217    7.2822 C   0  0  0  0  0  0  0  0  0  0  0  0
   47.4716  -44.1191    6.2944 N   0  0  0  0  0  0  0  0  0  0  0  0
   47.2185  -44.5987    4.9084 C   0  0  0  0  0  0  0  0  0  0  0  0
   48.1711  -43.7419    4.0908 C   0  0  0  0  0  0  0  0  0  0  0  0
   49.3767  -43.5257    4.9742 C   0  0  0  0  0  0  0  0  0  0  0  0
   48.8680  -43.8911    6.3464 C   0  0  0  0  0  0  0  0  0  0  0  0
   49.5523  -43.9912    7.4143 O   0  0  0  0  0  0  0  0  0  0  0  0
  1  2  1  0  0  0  0
  2  3  2  0  0  0  0
  2  4  1  0  0  0  0
  4  5  2  0  0  0  0
  5  6  1  0  0  0  0
  6  7  2  0  0  0  0
  7  8  1  0  0  0  0
  8  9  2  0  0  0  0
  9 10  1  0  0  0  0
  9  4  1  0  0  0  0
 10 11  1  0  0  0  0
 11 12  2  0  0  0  0
 11 13  1  0  0  0  0
 13 14  1  0  0  0  0
 14 15  1  0  0  0  0
 15 16  2  0  0  0  0
 16 17  1  0  0  0  0
 17 18  2  0  0  0  0
 18 19  1  0  0  0  0
 19 20  2  0  0  0  0
 20 21  1  0  0  0  0
 20 15  1  0  0  0  0
 21 22  1  0  0  0  0
 22 23  1  0  0  0  0
 23 24  1  0  0  0  0
 24 25  1  0  0  0  0
 25 26  2  0  0  0  0
 25 21  1  0  0  0  0
M  END
>  <CHROM.1>
9.51487566,-174.09390659,51.14934037,-106.21759754,58.19078123,18.27353080
43.86323817,-45.35401929,6.99164356,3.13473212,-0.43389525,-1.93402863

>  <Name>
design_18

>  <RI>
0

>  <Rbt.Current_Directory>
/home/ziqiaoxu/icml18-jtnn/VAEdesign

>  <Rbt.Executable>
rbdock ($Id: //depot/dev/client3/rdock/2013.1/src/exe/rbdock.cxx#4 $)

>  <Rbt.Library>
libRbt.so (2013.1, Build901 2013/11/27)

>  <Rbt.Parameter_File>
/export/apps/rDock/src/rDock_2013.1_src//data/scripts/dock.prm

>  <Rbt.Receptor>
/home/ziqiaoxu/icml18-jtnn/VAEdesign/targets/RdRp-SARS-CoV-2/pocket_docking.prm

>  <SCORE>
-25.4957

>  <SCORE.INTER>
-24.1682

>  <SCORE.INTER.CONST>
1

>  <SCORE.INTER.POLAR>
-3.0605

>  <SCORE.INTER.REPUL>
0.0197911

>  <SCORE.INTER.ROT>
6

>  <SCORE.INTER.VDW>
-25.2614

>  <SCORE.INTER.norm>
-0.929544

>  <SCORE.INTRA>
-1.32758

>  <SCORE.INTRA.DIHEDRAL>
-2.62685

>  <SCORE.INTRA.DIHEDRAL.0>
17.4808

>  <SCORE.INTRA.POLAR>
0

>  <SCORE.INTRA.POLAR.0>
0

>  <SCORE.INTRA.REPUL>
0

>  <SCORE.INTRA.REPUL.0>
0

>  <SCORE.INTRA.VDW>
-0.0141592

>  <SCORE.INTRA.VDW.0>
-0.870814

>  <SCORE.INTRA.norm>
-0.0510609

>  <SCORE.RESTR>
0

>  <SCORE.RESTR.CAVITY>
0

>  <SCORE.RESTR.norm>
0

>  <SCORE.SYSTEM>
0

>  <SCORE.SYSTEM.CONST>
0

>  <SCORE.SYSTEM.DIHEDRAL>
0

>  <SCORE.SYSTEM.norm>
0

>  <SCORE.heavy>
26

>  <SCORE.norm>
-0.980605

$$$$
design_3
 OpenBabel05252019093D

 23 24  0  0  0  0  0  0  0  0999 V2000
   45.7506  -44.8490    4.2593 C   0  0  0  0  0  0  0  0  0  0  0  0
   44.7511  -45.1497    5.3282 C   0  0  0  0  0  0  0  0  0  0  0  0
   45.1046  -44.9937    6.6580 C   0  0  0  0  0  0  0  0  0  0  0  0
   44.2103  -45.2617    7.6514 C   0  0  0  0  0  0  0  0  0  0  0  0
   42.9316  -45.6969    7.2815 C   0  0  0  0  0  0  0  0  0  0  0  0
   42.5562  -45.8594    5.9979 C   0  0  0  0  0  0  0  0  0  0  0  0
   41.2999  -46.3043    5.5624 N   0  0  0  0  0  0  0  0  0  0  0  0
   40.3023  -46.7959    6.4214 C   0  0  0  0  0  0  0  0  0  0  0  0
   40.3397  -46.9259    7.6468 O   0  0  0  0  0  0  0  0  0  0  0  0
   39.0025  -47.2274    5.7674 C   0  0  0  0  0  0  0  0  0  0  0  0
   38.0840  -46.0933    5.8055 C   0  0  0  0  0  0  0  0  0  0  0  0
   36.7553  -46.2619    5.5290 C   0  0  0  0  0  0  0  0  0  0  0  0
   35.8492  -45.1778    5.5603 C   0  0  0  0  0  0  0  0  0  0  0  0
   36.2854  -43.9256    5.8699 C   0  0  0  0  0  0  0  0  0  0  0  0
   35.4815  -42.8053    5.9133 N   0  0  0  0  0  0  0  0  0  0  0  0
   35.7835  -41.5333    6.4114 C   0  0  0  0  0  0  0  0  0  0  0  0
   36.8883  -41.2642    6.9056 O   0  0  0  0  0  0  0  0  0  0  0  0
   34.7824  -40.4139    6.3762 C   0  0  0  0  0  0  0  0  0  0  0  0
   34.4237  -40.1585    7.8435 C   0  0  0  0  0  0  0  0  0  0  0  0
   35.4731  -39.1767    5.8719 C   0  0  0  0  0  0  0  0  0  0  0  0
   37.6526  -43.7701    6.1513 C   0  0  0  0  0  0  0  0  0  0  0  0
   38.5366  -44.8391    6.1189 C   0  0  0  0  0  0  0  0  0  0  0  0
   43.4932  -45.5775    4.9866 C   0  0  0  0  0  0  0  0  0  0  0  0
  1  2  1  0  0  0  0
  2  3  2  0  0  0  0
  3  4  1  0  0  0  0
  4  5  2  0  0  0  0
  5  6  1  0  0  0  0
  6  7  1  0  0  0  0
  6 23  2  0  0  0  0
  7  8  1  0  0  0  0
  8  9  2  0  0  0  0
  8 10  1  0  0  0  0
 10 11  1  0  0  0  0
 11 12  2  0  0  0  0
 12 13  1  0  0  0  0
 13 14  2  0  0  0  0
 14 15  1  0  0  0  0
 14 21  1  0  0  0  0
 15 16  1  0  0  0  0
 16 17  2  0  0  0  0
 16 18  1  0  0  0  0
 18 19  1  0  0  0  0
 18 20  1  0  0  0  0
 21 22  2  0  0  0  0
 22 11  1  0  0  0  0
 23  2  1  0  0  0  0
M  END
>  <CHROM.1>
-7.87842880,-93.66960247,-167.04014983,169.24584429,111.89077131,39.32620843
-44.28964293,6.18035073,-0.46534792,0.02412675,0.06271144

>  <Name>
design_3

>  <RI>
0

>  <Rbt.Current_Directory>
/home/ziqiaoxu/icml18-jtnn/VAEdesign

>  <Rbt.Executable>
rbdock ($Id: //depot/dev/client3/rdock/2013.1/src/exe/rbdock.cxx#4 $)

>  <Rbt.Library>
libRbt.so (2013.1, Build901 2013/11/27)

>  <Rbt.Parameter_File>
/export/apps/rDock/src/rDock_2013.1_src//data/scripts/dock.prm

>  <Rbt.Receptor>
/home/ziqiaoxu/icml18-jtnn/VAEdesign/targets/RdRp-SARS-CoV-2/pocket_docking.prm

>  <SCORE>
-16.4721

>  <SCORE.INTER>
-16.2443

>  <SCORE.INTER.CONST>
1

>  <SCORE.INTER.POLAR>
-0.406829

>  <SCORE.INTER.REPUL>
0

>  <SCORE.INTER.ROT>
5

>  <SCORE.INTER.VDW>
-25.2611

>  <SCORE.INTER.norm>
-0.706275

>  <SCORE.INTRA>
-0.227774

>  <SCORE.INTRA.DIHEDRAL>
2.81259

>  <SCORE.INTRA.DIHEDRAL.0>
3.55574

>  <SCORE.INTRA.POLAR>
0

>  <SCORE.INTRA.POLAR.0>
0

>  <SCORE.INTRA.REPUL>
0

>  <SCORE.INTRA.REPUL.0>
0

>  <SCORE.INTRA.VDW>
-1.63407

>  <SCORE.INTRA.VDW.0>
4.14806

>  <SCORE.INTRA.norm>
-0.00990324

>  <SCORE.RESTR>
0

>  <SCORE.RESTR.CAVITY>
0

>  <SCORE.RESTR.norm>
0

>  <SCORE.SYSTEM>
0

>  <SCORE.SYSTEM.CONST>
0

>  <SCORE.SYSTEM.DIHEDRAL>
0

>  <SCORE.SYSTEM.norm>
0

>  <SCORE.heavy>
23

>  <SCORE.norm>
-0.716178

$$$$
design_0
 OpenBabel05252019093D

 21 24  0  0  0  0  0  0  0  0999 V2000
   44.2227  -45.0201    7.4666 C   0  0  0  0  0  0  0  0  0  0  0  0
   43.0266  -45.0859    8.3883 C   0  0  0  0  0  0  0  0  0  0  0  0
   41.9454  -45.8337    8.2837 N   0  0  0  0  0  0  0  0  0  0  0  0
   41.0109  -45.7515    9.1855 C   0  0  0  0  0  0  0  0  0  0  0  0
   39.7571  -46.6077    9.0905 C   0  0  0  0  0  0  0  0  0  0  0  0
   39.9006  -47.4982    7.9899 N   0  0  0  0  0  0  0  0  0  0  0  0
   38.9356  -48.5413    7.8958 C   0  0  0  0  0  0  0  0  0  0  0  0
   38.7902  -48.8412    6.4101 C   0  0  0  0  0  0  0  0  0  0  0  0
   39.8189  -47.9836    5.7162 C   0  0  0  0  0  0  0  0  0  0  0  0
   40.0754  -46.8787    6.7273 C   0  0  1  0  0  0  0  0  0  0  0  0
   38.9997  -45.8489    6.4938 C   0  0  0  0  0  0  0  0  0  0  0  0
   39.0459  -44.5464    6.6825 N   0  0  0  0  0  0  0  0  0  0  0  0
   38.0101  -43.8031    6.4239 C   0  0  0  0  0  0  0  0  0  0  0  0
   37.9188  -42.4097    6.5771 C   0  0  0  0  0  0  0  0  0  0  0  0
   36.7834  -41.7189    6.2771 C   0  0  0  0  0  0  0  0  0  0  0  0
   35.6564  -42.3527    5.8045 C   0  0  0  0  0  0  0  0  0  0  0  0
   35.7153  -43.7214    5.6434 C   0  0  0  0  0  0  0  0  0  0  0  0
   36.8864  -44.4310    5.9531 C   0  0  0  0  0  0  0  0  0  0  0  0
   37.4013  -46.0627    5.9143 S   0  0  0  0  0  0  0  0  0  0  0  0
   41.2150  -44.8663   10.2193 C   0  0  0  0  0  0  0  0  0  0  0  0
   42.7382  -44.2114    9.8234 S   0  0  0  0  0  0  0  0  0  0  0  0
  1  2  1  0  0  0  0
  2  3  2  0  0  0  0
  3  4  1  0  0  0  0
  4  5  1  0  0  0  0
  4 20  2  0  0  0  0
  5  6  1  0  0  0  0
  6  7  1  0  0  0  0
  7  8  1  0  0  0  0
  8  9  1  0  0  0  0
  9 10  1  0  0  0  0
 10 11  1  6  0  0  0
 10  6  1  0  0  0  0
 11 12  2  0  0  0  0
 12 13  1  0  0  0  0
 13 14  2  0  0  0  0
 14 15  1  0  0  0  0
 15 16  2  0  0  0  0
 16 17  1  0  0  0  0
 17 18  2  0  0  0  0
 18 19  1  0  0  0  0
 18 13  1  0  0  0  0
 19 11  1  0  0  0  0
 20 21  1  0  0  0  0
 21  2  1  0  0  0  0
M  END
>  <CHROM.1>
5.04351505,168.80718883,97.07959577,39.53489952,-45.35369609,7.35917268,-0.15191019
-0.50827492,0.13221808

>  <Name>
design_0

>  <RI>
0

>  <Rbt.Current_Directory>
/home/ziqiaoxu/icml18-jtnn/VAEdesign

>  <Rbt.Executable>
rbdock ($Id: //depot/dev/client3/rdock/2013.1/src/exe/rbdock.cxx#4 $)

>  <Rbt.Library>
libRbt.so (2013.1, Build901 2013/11/27)

>  <Rbt.Parameter_File>
/export/apps/rDock/src/rDock_2013.1_src//data/scripts/dock.prm

>  <Rbt.Receptor>
/home/ziqiaoxu/icml18-jtnn/VAEdesign/targets/RdRp-SARS-CoV-2/pocket_docking.prm

>  <SCORE>
-16.4344

>  <SCORE.INTER>
-16.8601

>  <SCORE.INTER.CONST>
1

>  <SCORE.INTER.POLAR>
0

>  <SCORE.INTER.REPUL>
0

>  <SCORE.INTER.ROT>
3

>  <SCORE.INTER.VDW>
-25.2601

>  <SCORE.INTER.norm>
-0.802864

>  <SCORE.INTRA>
0.425755

>  <SCORE.INTRA.DIHEDRAL>
1.17767

>  <SCORE.INTRA.DIHEDRAL.0>
2.36206

>  <SCORE.INTRA.POLAR>
0

>  <SCORE.INTRA.POLAR.0>
0

>  <SCORE.INTRA.REPUL>
0

>  <SCORE.INTRA.REPUL.0>
0

>  <SCORE.INTRA.VDW>
-0.163078

>  <SCORE.INTRA.VDW.0>
-0.414641

>  <SCORE.INTRA.norm>
0.0202741

>  <SCORE.RESTR>
0

>  <SCORE.RESTR.CAVITY>
0

>  <SCORE.RESTR.norm>
0

>  <SCORE.SYSTEM>
0

>  <SCORE.SYSTEM.CONST>
0

>  <SCORE.SYSTEM.DIHEDRAL>
0

>  <SCORE.SYSTEM.norm>
0

>  <SCORE.heavy>
21

>  <SCORE.norm>
-0.78259

$$$$
design_1
 OpenBabel05252019093D

 24 26  0  0  0  0  0  0  0  0999 V2000
   37.3320  -45.8589    7.1174 O   0  0  0  0  0  0  0  0  0  0  0  0
   37.7141  -46.3992    6.0800 C   0  0  0  0  0  0  0  0  0  0  0  0
   37.3597  -45.8429    4.7519 C   0  0  0  0  0  0  0  0  0  0  0  0
   38.5744  -45.1997    4.1487 C   0  0  0  0  0  0  0  0  0  0  0  0
   39.3525  -44.3164    4.8964 C   0  0  0  0  0  0  0  0  0  0  0  0
   39.0405  -44.0239    6.1653 F   0  0  0  0  0  0  0  0  0  0  0  0
   40.4635  -43.7301    4.3037 C   0  0  0  0  0  0  0  0  0  0  0  0
   40.7590  -44.0459    2.9883 C   0  0  0  0  0  0  0  0  0  0  0  0
   39.9886  -44.9214    2.2495 C   0  0  0  0  0  0  0  0  0  0  0  0
   38.8721  -45.5054    2.8563 C   0  0  0  0  0  0  0  0  0  0  0  0
   38.1127  -46.3770    2.1279 F   0  0  0  0  0  0  0  0  0  0  0  0
   38.5013  -47.5715    6.1080 N   0  0  0  0  0  0  0  0  0  0  0  0
   38.8652  -48.1420    7.3694 C   0  0  0  0  0  0  0  0  0  0  0  0
   39.7069  -47.1531    8.1419 C   0  0  0  0  0  0  0  0  0  0  0  0
   40.8860  -46.6721    7.8175 N   0  0  0  0  0  0  0  0  0  0  0  0
   41.4748  -45.8074    8.5927 C   0  0  0  0  0  0  0  0  0  0  0  0
   42.8161  -45.2499    8.2661 C   0  0  0  0  0  0  0  0  0  0  0  0
   43.4951  -45.5904    7.1146 C   0  0  0  0  0  0  0  0  0  0  0  0
   44.7090  -45.0816    6.7799 C   0  0  0  0  0  0  0  0  0  0  0  0
   45.2976  -44.1797    7.6237 C   0  0  0  0  0  0  0  0  0  0  0  0
   44.6513  -43.8108    8.7878 C   0  0  0  0  0  0  0  0  0  0  0  0
   43.4193  -44.3439    9.1055 C   0  0  0  0  0  0  0  0  0  0  0  0
   40.8083  -45.4419    9.7326 C   0  0  0  0  0  0  0  0  0  0  0  0
   39.3769  -46.3649    9.6178 S   0  0  0  0  0  0  0  0  0  0  0  0
  1  2  2  0  0  0  0
  2  3  1  0  0  0  0
  2 12  1  0  0  0  0
  3  4  1  0  0  0  0
  4  5  2  0  0  0  0
  5  6  1  0  0  0  0
  5  7  1  0  0  0  0
  7  8  2  0  0  0  0
  8  9  1  0  0  0  0
  9 10  2  0  0  0  0
 10 11  1  0  0  0  0
 10  4  1  0  0  0  0
 12 13  1  0  0  0  0
 13 14  1  0  0  0  0
 14 15  2  0  0  0  0
 15 16  1  0  0  0  0
 16 17  1  0  0  0  0
 16 23  2  0  0  0  0
 17 18  2  0  0  0  0
 18 19  1  0  0  0  0
 19 20  2  0  0  0  0
 20 21  1  0  0  0  0
 21 22  2  0  0  0  0
 22 17  1  0  0  0  0
 23 24  1  0  0  0  0
 24 14  1  0  0  0  0
M  END
>  <CHROM.1>
106.73350338,-48.26269075,-62.09769417,-62.98811683,1.56605511,40.31882915
-45.54877391,6.47666581,2.42441454,-0.37242368,-1.30660183

>  <Name>
design_1

>  <RI>
0

>  <Rbt.Current_Directory>
/home/ziqiaoxu/icml18-jtnn/VAEdesign

>  <Rbt.Executable>
rbdock ($Id: //depot/dev/client3/rdock/2013.1/src/exe/rbdock.cxx#4 $)

>  <Rbt.Library>
libRbt.so (2013.1, Build901 2013/11/27)

>  <Rbt.Parameter_File>
/export/apps/rDock/src/rDock_2013.1_src//data/scripts/dock.prm

>  <Rbt.Receptor>
/home/ziqiaoxu/icml18-jtnn/VAEdesign/targets/RdRp-SARS-CoV-2/pocket_docking.prm

>  <SCORE>
-18.5006

>  <SCORE.INTER>
-17.9974

>  <SCORE.INTER.CONST>
1

>  <SCORE.INTER.POLAR>
-0.923138

>  <SCORE.INTER.REPUL>
0

>  <SCORE.INTER.ROT>
5

>  <SCORE.INTER.VDW>
-25.2588

>  <SCORE.INTER.norm>
-0.749893

>  <SCORE.INTRA>
-0.503138

>  <SCORE.INTRA.DIHEDRAL>
-0.076063

>  <SCORE.INTRA.DIHEDRAL.0>
4.6756

>  <SCORE.INTRA.POLAR>
0

>  <SCORE.INTRA.POLAR.0>
0

>  <SCORE.INTRA.REPUL>
0

>  <SCORE.INTRA.REPUL.0>
0

>  <SCORE.INTRA.VDW>
-0.465107

>  <SCORE.INTRA.VDW.0>
-2.18322

>  <SCORE.INTRA.norm>
-0.0209641

>  <SCORE.RESTR>
0

>  <SCORE.RESTR.CAVITY>
0

>  <SCORE.RESTR.norm>
0

>  <SCORE.SYSTEM>
0

>  <SCORE.SYSTEM.CONST>
0

>  <SCORE.SYSTEM.DIHEDRAL>
0

>  <SCORE.SYSTEM.norm>
0

>  <SCORE.heavy>
24

>  <SCORE.norm>
-0.770857

$$$$
design_17
 OpenBabel05252019093D

 26 27  0  0  0  0  0  0  0  0999 V2000
   37.4612  -44.2628    5.7821 C   0  0  0  0  0  0  0  0  0  0  0  0
   37.7829  -45.3815    4.8075 C   0  0  0  0  0  0  0  0  0  0  0  0
   36.9937  -46.6242    5.1771 C   0  0  0  0  0  0  0  0  0  0  0  0
   39.2676  -45.6313    4.8902 C   0  0  0  0  0  0  0  0  0  0  0  0
   40.0170  -44.6214    4.0540 C   0  0  0  0  0  0  0  0  0  0  0  0
   39.8581  -43.4078    4.2758 O   0  0  0  0  0  0  0  0  0  0  0  0
   40.8798  -45.0776    3.0404 N   0  0  0  0  0  0  0  0  0  0  0  0
   41.6564  -44.2840    2.1752 C   0  0  0  0  0  0  0  0  0  0  0  0
   42.6108  -44.9649    1.4062 C   0  0  0  0  0  0  0  0  0  0  0  0
   43.4446  -44.3030    0.5344 C   0  0  0  0  0  0  0  0  0  0  0  0
   43.3333  -42.9279    0.4178 C   0  0  0  0  0  0  0  0  0  0  0  0
   42.4154  -42.2066    1.1470 C   0  0  0  0  0  0  0  0  0  0  0  0
   42.3211  -40.7737    1.0060 C   0  0  0  0  0  0  0  0  0  0  0  0
   43.2277  -40.1797    0.3510 O   0  0  0  0  0  0  0  0  0  0  0  0
   41.2932  -39.9667    1.5416 N   0  0  0  0  0  0  0  0  0  0  0  0
   41.2569  -38.5364    1.3644 C   0  0  0  0  0  0  0  0  0  0  0  0
   40.7967  -37.8505    2.5972 C   0  0  0  0  0  0  0  0  0  0  0  0
   40.2305  -36.6054    2.6305 C   0  0  0  0  0  0  0  0  0  0  0  0
   39.8292  -36.0447    3.8337 C   0  0  0  0  0  0  0  0  0  0  0  0
   39.9991  -36.7413    5.0109 C   0  0  0  0  0  0  0  0  0  0  0  0
   40.5684  -38.0053    5.0235 C   0  0  0  0  0  0  0  0  0  0  0  0
   40.7307  -38.6961    6.2435 N   0  0  0  0  0  0  0  0  0  0  0  0
   40.4679  -38.0299    7.4915 C   0  0  0  0  0  0  0  0  0  0  0  0
   41.1589  -40.0688    6.2492 C   0  0  0  0  0  0  0  0  0  0  0  0
   40.9517  -38.5225    3.8048 C   0  0  0  0  0  0  0  0  0  0  0  0
   41.5864  -42.9267    2.0241 C   0  0  0  0  0  0  0  0  0  0  0  0
  1  2  1  0  0  0  0
  2  3  1  0  0  0  0
  2  4  1  0  0  0  0
  4  5  1  0  0  0  0
  5  6  2  0  0  0  0
  5  7  1  0  0  0  0
  7  8  1  0  0  0  0
  8  9  2  0  0  0  0
  9 10  1  0  0  0  0
 10 11  2  0  0  0  0
 11 12  1  0  0  0  0
 12 13  1  0  0  0  0
 12 26  2  0  0  0  0
 13 14  2  0  0  0  0
 13 15  1  0  0  0  0
 15 16  1  0  0  0  0
 16 17  1  0  0  0  0
 17 18  2  0  0  0  0
 18 19  1  0  0  0  0
 19 20  2  0  0  0  0
 20 21  1  0  0  0  0
 21 22  1  0  0  0  0
 21 25  2  0  0  0  0
 22 23  1  0  0  0  0
 22 24  1  0  0  0  0
 25 17  1  0  0  0  0
 26  8  1  0  0  0  0
M  END
>  <CHROM.1>
-81.34706465,56.76160372,169.24804361,-10.27597512,-140.87246212,-156.63519996
-7.99646908,40.73711057,-41.45008237,3.39661795,1.76617818,-0.92114452,-2.93376469

>  <Name>
design_17

>  <RI>
0

>  <Rbt.Current_Directory>
/home/ziqiaoxu/icml18-jtnn/VAEdesign

>  <Rbt.Executable>
rbdock ($Id: //depot/dev/client3/rdock/2013.1/src/exe/rbdock.cxx#4 $)

>  <Rbt.Library>
libRbt.so (2013.1, Build901 2013/11/27)

>  <Rbt.Parameter_File>
/export/apps/rDock/src/rDock_2013.1_src//data/scripts/dock.prm

>  <Rbt.Receptor>
/home/ziqiaoxu/icml18-jtnn/VAEdesign/targets/RdRp-SARS-CoV-2/pocket_docking.prm

>  <SCORE>
-20.8205

>  <SCORE.INTER>
-20.4573

>  <SCORE.INTER.CONST>
1

>  <SCORE.INTER.POLAR>
-2.23537

>  <SCORE.INTER.REPUL>
0

>  <SCORE.INTER.ROT>
7

>  <SCORE.INTER.VDW>
-25.257

>  <SCORE.INTER.norm>
-0.786818

>  <SCORE.INTRA>
-0.363275

>  <SCORE.INTRA.DIHEDRAL>
3.08155

>  <SCORE.INTRA.DIHEDRAL.0>
4.02585

>  <SCORE.INTRA.POLAR>
0

>  <SCORE.INTRA.POLAR.0>
0

>  <SCORE.INTRA.REPUL>
0

>  <SCORE.INTRA.REPUL.0>
0

>  <SCORE.INTRA.VDW>
-1.90405

>  <SCORE.INTRA.VDW.0>
5.00392

>  <SCORE.INTRA.norm>
-0.0139721

>  <SCORE.RESTR>
0

>  <SCORE.RESTR.CAVITY>
0

>  <SCORE.RESTR.norm>
0

>  <SCORE.SYSTEM>
0

>  <SCORE.SYSTEM.CONST>
0

>  <SCORE.SYSTEM.DIHEDRAL>
0

>  <SCORE.SYSTEM.norm>
0

>  <SCORE.heavy>
26

>  <SCORE.norm>
-0.80079

$$$$
design_12
 OpenBabel05252019093D

 23 24  0  0  0  0  0  0  0  0999 V2000
   46.1942  -43.6832   10.3009 C   0  0  0  0  0  0  0  0  0  0  0  0
   46.1413  -43.4445    8.9213 O   0  0  0  0  0  0  0  0  0  0  0  0
   45.2857  -44.1577    8.0899 C   0  0  0  0  0  0  0  0  0  0  0  0
   44.0214  -44.4430    8.5373 C   0  0  0  0  0  0  0  0  0  0  0  0
   43.1173  -45.1617    7.7344 C   0  0  0  0  0  0  0  0  0  0  0  0
   41.8139  -45.4199    8.2274 N   0  0  0  0  0  0  0  0  0  0  0  0
   41.3105  -45.1223    9.5028 C   0  0  0  0  0  0  0  0  0  0  0  0
   41.9793  -44.5677   10.3860 O   0  0  0  0  0  0  0  0  0  0  0  0
   39.8731  -45.5185    9.7635 C   0  0  0  0  0  0  0  0  0  0  0  0
   39.7137  -46.8858    9.3757 N   0  0  0  0  0  0  0  0  0  0  0  0
   39.0744  -47.2512    8.1625 C   0  0  0  0  0  0  0  0  0  0  0  0
   39.0950  -48.5280    7.6576 C   0  0  0  0  0  0  0  0  0  0  0  0
   38.4474  -48.8130    6.4646 C   0  0  0  0  0  0  0  0  0  0  0  0
   37.7774  -47.8508    5.7607 C   0  0  0  0  0  0  0  0  0  0  0  0
   37.7518  -46.5537    6.2657 C   0  0  0  0  0  0  0  0  0  0  0  0
   37.0402  -45.4596    5.5487 C   0  0  0  0  0  0  0  0  0  0  0  0
   35.6735  -45.6359    5.8354 O   0  0  0  0  0  0  0  0  0  0  0  0
   38.3959  -46.2772    7.4494 C   0  0  0  0  0  0  0  0  0  0  0  0
   43.5658  -45.5563    6.4933 C   0  0  0  0  0  0  0  0  0  0  0  0
   44.8477  -45.2797    6.0127 C   0  0  0  0  0  0  0  0  0  0  0  0
   45.2031  -45.7219    4.7476 O   0  0  0  0  0  0  0  0  0  0  0  0
   46.5349  -45.7051    4.3191 C   0  0  0  0  0  0  0  0  0  0  0  0
   45.6888  -44.5742    6.8403 C   0  0  0  0  0  0  0  0  0  0  0  0
  1  2  1  0  0  0  0
  2  3  1  0  0  0  0
  3  4  2  0  0  0  0
  4  5  1  0  0  0  0
  5  6  1  0  0  0  0
  5 19  2  0  0  0  0
  6  7  1  0  0  0  0
  7  8  2  0  0  0  0
  7  9  1  0  0  0  0
  9 10  1  0  0  0  0
 10 11  1  0  0  0  0
 11 12  2  0  0  0  0
 12 13  1  0  0  0  0
 13 14  2  0  0  0  0
 14 15  1  0  0  0  0
 15 16  1  0  0  0  0
 15 18  2  0  0  0  0
 16 17  1  0  0  0  0
 18 11  1  0  0  0  0
 19 20  1  0  0  0  0
 20 21  1  0  0  0  0
 20 23  2  0  0  0  0
 21 22  1  0  0  0  0
 23  3  1  0  0  0  0
M  END
>  <CHROM.1>
39.86989599,-5.03432280,50.20804112,-103.21278912,169.13924214,78.28292574
-61.05094303,-167.44534822,41.70021863,-45.68901285,7.50051796,0.16781205
0.24782931,1.28486122

>  <Name>
design_12

>  <RI>
0

>  <Rbt.Current_Directory>
/home/ziqiaoxu/icml18-jtnn/VAEdesign

>  <Rbt.Executable>
rbdock ($Id: //depot/dev/client3/rdock/2013.1/src/exe/rbdock.cxx#4 $)

>  <Rbt.Library>
libRbt.so (2013.1, Build901 2013/11/27)

>  <Rbt.Parameter_File>
/export/apps/rDock/src/rDock_2013.1_src//data/scripts/dock.prm

>  <Rbt.Receptor>
/home/ziqiaoxu/icml18-jtnn/VAEdesign/targets/RdRp-SARS-CoV-2/pocket_docking.prm

>  <SCORE>
-24.0951

>  <SCORE.INTER>
-20.1202

>  <SCORE.INTER.CONST>
1

>  <SCORE.INTER.POLAR>
-2.31734

>  <SCORE.INTER.REPUL>
0.123141

>  <SCORE.INTER.ROT>
7

>  <SCORE.INTER.VDW>
-25.2569

>  <SCORE.INTER.norm>
-0.87479

>  <SCORE.INTRA>
-3.97494

>  <SCORE.INTRA.DIHEDRAL>
-3.40698

>  <SCORE.INTRA.DIHEDRAL.0>
10.597

>  <SCORE.INTRA.POLAR>
0

>  <SCORE.INTRA.POLAR.0>
0

>  <SCORE.INTRA.REPUL>
0

>  <SCORE.INTRA.REPUL.0>
0

>  <SCORE.INTRA.VDW>
-2.27144

>  <SCORE.INTRA.VDW.0>
4.90377

>  <SCORE.INTRA.norm>
-0.172823

>  <SCORE.RESTR>
0

>  <SCORE.RESTR.CAVITY>
0

>  <SCORE.RESTR.norm>
0

>  <SCORE.SYSTEM>
0

>  <SCORE.SYSTEM.CONST>
0

>  <SCORE.SYSTEM.DIHEDRAL>
0

>  <SCORE.SYSTEM.norm>
0

>  <SCORE.heavy>
23

>  <SCORE.norm>
-1.04761

$$$$
design_16
 OpenBabel05252019093D

 25 27  0  0  0  0  0  0  0  0999 V2000
   42.4613  -35.4227    2.8093 C   0  0  0  0  0  0  0  0  0  0  0  0
   40.9912  -35.6387    3.0972 C   0  0  0  0  0  0  0  0  0  0  0  0
   40.7839  -36.4077    4.3019 N   0  0  0  0  0  0  0  0  0  0  0  0
   40.6398  -37.8015    4.2107 C   0  0  0  0  0  0  0  0  0  0  0  0
   40.6919  -38.3930    3.0825 O   0  0  0  0  0  0  0  0  0  0  0  0
   40.4284  -38.5814    5.4261 C   0  0  0  0  0  0  0  0  0  0  0  0
   40.3334  -39.9486    5.4399 C   0  0  0  0  0  0  0  0  0  0  0  0
   40.1275  -40.6731    6.5931 C   0  0  0  0  0  0  0  0  0  0  0  0
   40.0010  -40.0412    7.8428 C   0  0  0  0  0  0  0  0  0  0  0  0
   39.7791  -40.8555    8.9803 N   0  0  0  0  0  0  0  0  0  0  0  0
   39.7773  -42.2631    8.9901 C   0  0  0  0  0  0  0  0  0  0  0  0
   39.9668  -42.9970    8.0019 O   0  0  0  0  0  0  0  0  0  0  0  0
   39.5297  -42.9809   10.2829 C   0  0  0  0  0  0  0  0  0  0  0  0
   40.6573  -43.9258   10.5882 C   0  0  0  0  0  0  0  0  0  0  0  0
   40.6122  -45.0279    9.6110 C   0  0  0  0  0  0  0  0  0  0  0  0
   41.6324  -45.1664    8.7000 C   0  0  0  0  0  0  0  0  0  0  0  0
   41.6177  -46.2031    7.7595 C   0  0  0  0  0  0  0  0  0  0  0  0
   40.5716  -47.0957    7.7436 C   0  0  0  0  0  0  0  0  0  0  0  0
   39.5516  -46.9486    8.6625 C   0  0  0  0  0  0  0  0  0  0  0  0
   39.5669  -45.9138    9.6007 C   0  0  0  0  0  0  0  0  0  0  0  0
   38.6356  -47.9644    8.4336 O   0  0  0  0  0  0  0  0  0  0  0  0
   39.0357  -48.6753    7.2816 C   0  0  0  0  0  0  0  0  0  0  0  0
   40.3163  -48.1993    6.9265 O   0  0  0  0  0  0  0  0  0  0  0  0
   40.0961  -38.6775    7.8248 C   0  0  0  0  0  0  0  0  0  0  0  0
   40.3056  -37.9477    6.6478 C   0  0  0  0  0  0  0  0  0  0  0  0
  1  2  1  0  0  0  0
  2  3  1  0  0  0  0
  3  4  1  0  0  0  0
  4  5  2  0  0  0  0
  4  6  1  0  0  0  0
  6  7  2  0  0  0  0
  7  8  1  0  0  0  0
  8  9  2  0  0  0  0
  9 10  1  0  0  0  0
  9 24  1  0  0  0  0
 10 11  1  0  0  0  0
 11 12  2  0  0  0  0
 11 13  1  0  0  0  0
 13 14  1  0  0  0  0
 14 15  1  0  0  0  0
 15 16  2  0  0  0  0
 16 17  1  0  0  0  0
 17 18  2  0  0  0  0
 18 19  1  0  0  0  0
 19 20  2  0  0  0  0
 19 21  1  0  0  0  0
 20 15  1  0  0  0  0
 21 22  1  0  0  0  0
 22 23  1  0  0  0  0
 23 18  1  0  0  0  0
 24 25  2  0  0  0  0
 25  6  1  0  0  0  0
M  END
>  <CHROM.1>
-93.26149735,-177.16966340,5.32409303,-124.06683500,-68.98407907,113.65958861
40.31997305,-42.14420494,7.10894213,-0.89884875,-1.42028511,-2.88145299

>  <Name>
design_16

>  <RI>
0

>  <Rbt.Current_Directory>
/home/ziqiaoxu/icml18-jtnn/VAEdesign

>  <Rbt.Executable>
rbdock ($Id: //depot/dev/client3/rdock/2013.1/src/exe/rbdock.cxx#4 $)

>  <Rbt.Library>
libRbt.so (2013.1, Build901 2013/11/27)

>  <Rbt.Parameter_File>
/export/apps/rDock/src/rDock_2013.1_src//data/scripts/dock.prm

>  <Rbt.Receptor>
/home/ziqiaoxu/icml18-jtnn/VAEdesign/targets/RdRp-SARS-CoV-2/pocket_docking.prm

>  <SCORE>
-17.5359

>  <SCORE.INTER>
-16.9698

>  <SCORE.INTER.CONST>
1

>  <SCORE.INTER.POLAR>
-0.915808

>  <SCORE.INTER.REPUL>
0

>  <SCORE.INTER.ROT>
6

>  <SCORE.INTER.VDW>
-25.256

>  <SCORE.INTER.norm>
-0.678792

>  <SCORE.INTRA>
-0.566153

>  <SCORE.INTRA.DIHEDRAL>
0.667882

>  <SCORE.INTRA.DIHEDRAL.0>
4.40151

>  <SCORE.INTRA.POLAR>
0

>  <SCORE.INTRA.POLAR.0>
0

>  <SCORE.INTRA.REPUL>
0

>  <SCORE.INTRA.REPUL.0>
0

>  <SCORE.INTRA.VDW>
-0.900095

>  <SCORE.INTRA.VDW.0>
1.50381

>  <SCORE.INTRA.norm>
-0.0226461

>  <SCORE.RESTR>
0

>  <SCORE.RESTR.CAVITY>
0

>  <SCORE.RESTR.norm>
0

>  <SCORE.SYSTEM>
0

>  <SCORE.SYSTEM.CONST>
0

>  <SCORE.SYSTEM.DIHEDRAL>
0

>  <SCORE.SYSTEM.norm>
0

>  <SCORE.heavy>
25

>  <SCORE.norm>
-0.701438

$$$$
design_11
 OpenBabel05252019093D

 24 26  0  0  0  0  0  0  0  0999 V2000
   41.6372  -41.3177    4.2171 C   0  0  0  0  0  0  0  0  0  0  0  0
   41.0601  -40.1781    4.7928 O   0  0  0  0  0  0  0  0  0  0  0  0
   40.6080  -38.9642    4.3019 C   0  0  0  0  0  0  0  0  0  0  0  0
   40.5435  -38.7194    2.9913 N   0  0  0  0  0  0  0  0  0  0  0  0
   40.0591  -37.4204    2.7353 C   0  0  0  0  0  0  0  0  0  0  0  0
   39.7584  -36.5658    3.6869 C   0  0  0  0  0  0  0  0  0  0  0  0
   39.8195  -36.7915    5.0495 C   0  0  0  0  0  0  0  0  0  0  0  0
   40.2598  -38.0899    5.3905 C   0  0  0  0  0  0  0  0  0  0  0  0
   40.0299  -38.6337    6.6291 C   0  0  0  0  0  0  0  0  0  0  0  0
   40.0672  -38.7876    7.9986 N   0  0  0  0  0  0  0  0  0  0  0  0
   40.5804  -40.2151    8.2092 C   0  0  0  0  0  0  0  0  0  0  0  0
   41.3556  -40.7591    7.5082 O   0  0  0  0  0  0  0  0  0  0  0  0
   39.9047  -40.8628    9.3674 N   0  0  0  0  0  0  0  0  0  0  0  0
   39.8152  -42.3193    9.0676 C   0  0  0  0  0  0  0  0  0  0  0  0
   39.5602  -43.2249   10.2203 C   0  0  0  0  0  0  0  0  0  0  0  0
   39.4473  -44.5770    9.5615 C   0  0  0  0  0  0  0  0  0  0  0  0
   38.7110  -44.6781    8.3613 N   0  0  0  0  0  0  0  0  0  0  0  0
   38.5527  -45.8655    7.8828 C   0  0  0  0  0  0  0  0  0  0  0  0
   39.1656  -46.9580    8.5936 C   0  0  0  0  0  0  0  0  0  0  0  0
   39.8997  -46.0839    9.8488 S   0  0  0  0  0  0  0  0  0  0  0  0
   39.0155  -48.3114    8.0232 C   0  0  0  0  0  0  0  0  0  0  0  0
   39.0709  -48.4190    6.5127 C   0  0  0  0  0  0  0  0  0  0  0  0
   38.9603  -47.0412    5.8625 C   0  0  0  0  0  0  0  0  0  0  0  0
   37.8870  -46.3378    6.6379 C   0  0  0  0  0  0  0  0  0  0  0  0
  1  2  1  0  0  0  0
  2  3  1  0  0  0  0
  3  4  2  0  0  0  0
  4  5  1  0  0  0  0
  5  6  2  0  0  0  0
  6  7  1  0  0  0  0
  7  8  2  0  0  0  0
  8  9  1  0  0  0  0
  8  3  1  0  0  0  0
  9 10  1  0  0  0  0
 10 11  1  0  0  0  0
 11 12  2  0  0  0  0
 11 13  1  0  0  0  0
 13 14  1  0  0  0  0
 14 15  1  0  0  0  0
 15 16  1  0  0  0  0
 16 17  2  0  0  0  0
 17 18  1  0  0  0  0
 18 19  2  0  0  0  0
 19 20  1  0  0  0  0
 19 21  1  0  0  0  0
 20 16  1  0  0  0  0
 21 22  1  0  0  0  0
 22 23  1  0  0  0  0
 23 24  1  0  0  0  0
 24 18  1  0  0  0  0
M  END
>  <CHROM.1>
6.97875394,137.12026978,-126.80650862,162.10544373,176.68326679,-42.78289115
39.84984734,-42.33327059,6.97716884,0.47171838,-1.42193779,-1.49470660

>  <Name>
design_11

>  <RI>
0

>  <Rbt.Current_Directory>
/home/ziqiaoxu/icml18-jtnn/VAEdesign

>  <Rbt.Executable>
rbdock ($Id: //depot/dev/client3/rdock/2013.1/src/exe/rbdock.cxx#4 $)

>  <Rbt.Library>
libRbt.so (2013.1, Build901 2013/11/27)

>  <Rbt.Parameter_File>
/export/apps/rDock/src/rDock_2013.1_src//data/scripts/dock.prm

>  <Rbt.Receptor>
/home/ziqiaoxu/icml18-jtnn/VAEdesign/targets/RdRp-SARS-CoV-2/pocket_docking.prm

>  <SCORE>
-20.4306

>  <SCORE.INTER>
-20.199

>  <SCORE.INTER.CONST>
1

>  <SCORE.INTER.POLAR>
-1.86585

>  <SCORE.INTER.REPUL>
0

>  <SCORE.INTER.ROT>
6

>  <SCORE.INTER.VDW>
-25.2551

>  <SCORE.INTER.norm>
-0.841626

>  <SCORE.INTRA>
-0.231597

>  <SCORE.INTRA.DIHEDRAL>
-1.79874

>  <SCORE.INTRA.DIHEDRAL.0>
6.54649

>  <SCORE.INTRA.POLAR>
0

>  <SCORE.INTRA.POLAR.0>
0

>  <SCORE.INTRA.REPUL>
0

>  <SCORE.INTRA.REPUL.0>
0

>  <SCORE.INTRA.VDW>
0.667776

>  <SCORE.INTRA.VDW.0>
-1.71028

>  <SCORE.INTRA.norm>
-0.00964986

>  <SCORE.RESTR>
0

>  <SCORE.RESTR.CAVITY>
0

>  <SCORE.RESTR.norm>
0

>  <SCORE.SYSTEM>
0

>  <SCORE.SYSTEM.CONST>
0

>  <SCORE.SYSTEM.DIHEDRAL>
0

>  <SCORE.SYSTEM.norm>
0

>  <SCORE.heavy>
24

>  <SCORE.norm>
-0.851276

$$$$
design_3
 OpenBabel05252019093D

 24 26  0  0  0  0  0  0  0  0999 V2000
   48.1732  -43.5239    6.1031 C   0  0  0  0  0  0  0  0  0  0  0  0
   46.8719  -44.0989    6.4325 C   0  0  0  0  0  0  0  0  0  0  0  0
   46.2691  -43.8088    7.6361 C   0  0  0  0  0  0  0  0  0  0  0  0
   45.0400  -44.3466    7.9495 C   0  0  0  0  0  0  0  0  0  0  0  0
   44.3402  -45.2022    7.0862 C   0  0  0  0  0  0  0  0  0  0  0  0
   43.0766  -45.6964    7.4998 N   0  0  0  0  0  0  0  0  0  0  0  0
   42.0857  -46.2906    6.7222 C   0  0  0  0  0  0  0  0  0  0  0  0
   42.1516  -46.5233    5.4689 O   0  0  0  0  0  0  0  0  0  0  0  0
   40.8147  -46.7277    7.3132 C   0  0  0  0  0  0  0  0  0  0  0  0
   40.3004  -47.9143    6.8033 C   0  0  0  0  0  0  0  0  0  0  0  0
   39.1405  -48.4540    7.3256 C   0  0  0  0  0  0  0  0  0  0  0  0
   38.5242  -47.7919    8.3453 C   0  0  0  0  0  0  0  0  0  0  0  0
   39.0476  -46.6161    8.8385 C   0  0  0  0  0  0  0  0  0  0  0  0
   40.2178  -46.0372    8.3368 C   0  0  0  0  0  0  0  0  0  0  0  0
   40.7460  -44.5377    8.9905 S   0  0  0  0  0  0  0  0  0  0  0  0
   41.9706  -44.8215    9.8688 O   0  0  0  0  0  0  0  0  0  0  0  0
   41.0925  -43.4670    8.0485 O   0  0  0  0  0  0  0  0  0  0  0  0
   39.4852  -43.9333   10.0495 N   0  0  0  0  0  0  0  0  0  0  0  0
   39.8569  -42.7072   10.6785 C   0  0  0  0  0  0  0  0  0  0  0  0
   38.6629  -41.8932   11.2209 C   0  0  0  0  0  0  0  0  0  0  0  0
   39.5588  -41.3959   10.0946 C   0  0  0  0  0  0  0  0  0  0  0  0
   44.9608  -45.4753    5.8954 C   0  0  0  0  0  0  0  0  0  0  0  0
   46.2142  -44.9214    5.5861 C   0  0  0  0  0  0  0  0  0  0  0  0
   46.8032  -45.2705    4.2826 C   0  0  0  0  0  0  0  0  0  0  0  0
  1  2  1  0  0  0  0
  2  3  2  0  0  0  0
  3  4  1  0  0  0  0
  4  5  2  0  0  0  0
  5  6  1  0  0  0  0
  5 22  1  0  0  0  0
  6  7  1  0  0  0  0
  7  8  2  0  0  0  0
  7  9  1  0  0  0  0
  9 10  2  0  0  0  0
 10 11  1  0  0  0  0
 11 12  2  0  0  0  0
 12 13  1  0  0  0  0
 13 14  2  0  0  0  0
 14 15  1  0  0  0  0
 14  9  1  0  0  0  0
 15 16  2  0  0  0  0
 15 17  2  0  0  0  0
 15 18  1  0  0  0  0
 18 19  1  0  0  0  0
 19 20  1  0  0  0  0
 20 21  1  0  0  0  0
 21 19  1  0  0  0  0
 22 23  2  0  0  0  0
 23 24  1  0  0  0  0
 23  2  1  0  0  0  0
M  END
>  <CHROM.1>
164.04981021,-142.18928127,-75.63691792,177.92885138,160.32168685,42.21597639
-44.99131713,7.86009556,-0.24754260,0.39042058,0.58816680

>  <Name>
design_3

>  <RI>
0

>  <Rbt.Current_Directory>
/home/ziqiaoxu/icml18-jtnn/VAEdesign

>  <Rbt.Executable>
rbdock ($Id: //depot/dev/client3/rdock/2013.1/src/exe/rbdock.cxx#4 $)

>  <Rbt.Library>
libRbt.so (2013.1, Build901 2013/11/27)

>  <Rbt.Parameter_File>
/export/apps/rDock/src/rDock_2013.1_src//data/scripts/dock.prm

>  <Rbt.Receptor>
/home/ziqiaoxu/icml18-jtnn/VAEdesign/targets/RdRp-SARS-CoV-2/pocket_docking.prm

>  <SCORE>
-20.1559

>  <SCORE.INTER>
-18.1988

>  <SCORE.INTER.CONST>
1

>  <SCORE.INTER.POLAR>
-1.0198

>  <SCORE.INTER.REPUL>
0.0245155

>  <SCORE.INTER.ROT>
5

>  <SCORE.INTER.VDW>
-25.2541

>  <SCORE.INTER.norm>
-0.758285

>  <SCORE.INTRA>
-1.95702

>  <SCORE.INTRA.DIHEDRAL>
-4.48131

>  <SCORE.INTRA.DIHEDRAL.0>
12.8489

>  <SCORE.INTRA.POLAR>
-0.313314

>  <SCORE.INTRA.POLAR.0>
0

>  <SCORE.INTRA.REPUL>
0

>  <SCORE.INTRA.REPUL.0>
0

>  <SCORE.INTRA.VDW>
1.3489

>  <SCORE.INTRA.VDW.0>
-4.04849

>  <SCORE.INTRA.norm>
-0.0815425

>  <SCORE.RESTR>
0

>  <SCORE.RESTR.CAVITY>
0

>  <SCORE.RESTR.norm>
0

>  <SCORE.SYSTEM>
0

>  <SCORE.SYSTEM.CONST>
0

>  <SCORE.SYSTEM.DIHEDRAL>
0

>  <SCORE.SYSTEM.norm>
0

>  <SCORE.heavy>
24

>  <SCORE.norm>
-0.839827

$$$$
design_9
 OpenBabel05252019093D

 24 26  0  0  0  0  0  0  0  0999 V2000
   44.6244  -44.9167    3.0516 O   0  0  0  0  0  0  0  0  0  0  0  0
   45.4789  -45.6067    3.6784 C   0  0  0  0  0  0  0  0  0  0  0  0
   45.4460  -45.6454    5.0823 N   0  0  0  0  0  0  0  0  0  0  0  0
   44.4729  -44.9342    5.8507 C   0  0  0  0  0  0  0  0  0  0  0  0
   44.7378  -44.9994    7.3276 C   0  0  0  0  0  0  0  0  0  0  0  0
   43.4619  -45.0751    8.0245 N   0  0  0  0  0  0  0  0  0  0  0  0
   42.5584  -45.9530    7.6288 N   0  0  0  0  0  0  0  0  0  0  0  0
   41.3695  -46.0747    8.2240 C   0  0  0  0  0  0  0  0  0  0  0  0
   40.4165  -47.0744    7.7271 C   0  0  0  0  0  0  0  0  0  0  0  0
   39.4114  -47.5185    8.5668 C   0  0  0  0  0  0  0  0  0  0  0  0
   38.4985  -48.4497    8.1501 C   0  0  0  0  0  0  0  0  0  0  0  0
   38.5678  -48.9612    6.8804 C   0  0  0  0  0  0  0  0  0  0  0  0
   39.5565  -48.5415    6.0161 C   0  0  0  0  0  0  0  0  0  0  0  0
   40.4660  -47.6021    6.4578 C   0  0  0  0  0  0  0  0  0  0  0  0
   41.1056  -45.2432    9.2831 C   0  0  0  0  0  0  0  0  0  0  0  0
   42.0599  -44.3115    9.7058 C   0  0  0  0  0  0  0  0  0  0  0  0
   43.2674  -44.2347    9.0506 C   0  0  0  0  0  0  0  0  0  0  0  0
   44.1731  -43.4189    9.3780 O   0  0  0  0  0  0  0  0  0  0  0  0
   46.4761  -46.3422    2.8862 C   0  0  0  0  0  0  0  0  0  0  0  0
   47.5363  -47.0117    3.4521 C   0  0  0  0  0  0  0  0  0  0  0  0
   48.4505  -47.6927    2.6411 C   0  0  0  0  0  0  0  0  0  0  0  0
   48.3367  -47.7256    1.2695 C   0  0  0  0  0  0  0  0  0  0  0  0
   47.2751  -47.0552    0.7033 C   0  0  0  0  0  0  0  0  0  0  0  0
   46.3727  -46.3825    1.5095 C   0  0  0  0  0  0  0  0  0  0  0  0
  1  2  2  0  0  0  0
  2  3  1  0  0  0  0
  2 19  1  0  0  0  0
  3  4  1  0  0  0  0
  4  5  1  0  0  0  0
  5  6  1  0  0  0  0
  6  7  1  0  0  0  0
  7  8  2  0  0  0  0
  8  9  1  0  0  0  0
  8 15  1  0  0  0  0
  9 10  2  0  0  0  0
 10 11  1  0  0  0  0
 11 12  2  0  0  0  0
 12 13  1  0  0  0  0
 13 14  2  0  0  0  0
 14  9  1  0  0  0  0
 15 16  2  0  0  0  0
 16 17  1  0  0  0  0
 17 18  2  0  0  0  0
 17  6  1  0  0  0  0
 19 20  2  0  0  0  0
 20 21  1  0  0  0  0
 21 22  2  0  0  0  0
 22 23  1  0  0  0  0
 23 24  2  0  0  0  0
 24 19  1  0  0  0  0
M  END
>  <CHROM.1>
-173.24993329,-143.74586284,48.90826054,158.54483578,173.04209573,43.54155857
-46.23396003,5.95066044,0.57575249,-0.48509546,-2.20175439

>  <Name>
design_9

>  <RI>
0

>  <Rbt.Current_Directory>
/home/ziqiaoxu/icml18-jtnn/VAEdesign

>  <Rbt.Executable>
rbdock ($Id: //depot/dev/client3/rdock/2013.1/src/exe/rbdock.cxx#4 $)

>  <Rbt.Library>
libRbt.so (2013.1, Build901 2013/11/27)

>  <Rbt.Parameter_File>
/export/apps/rDock/src/rDock_2013.1_src//data/scripts/dock.prm

>  <Rbt.Receptor>
/home/ziqiaoxu/icml18-jtnn/VAEdesign/targets/RdRp-SARS-CoV-2/pocket_docking.prm

>  <SCORE>
-15.8116

>  <SCORE.INTER>
-18.5706

>  <SCORE.INTER.CONST>
1

>  <SCORE.INTER.POLAR>
-1.09328

>  <SCORE.INTER.REPUL>
0

>  <SCORE.INTER.ROT>
5

>  <SCORE.INTER.VDW>
-25.2535

>  <SCORE.INTER.norm>
-0.773777

>  <SCORE.INTRA>
2.759

>  <SCORE.INTRA.DIHEDRAL>
4.47715

>  <SCORE.INTRA.DIHEDRAL.0>
3.60133

>  <SCORE.INTRA.POLAR>
0

>  <SCORE.INTRA.POLAR.0>
0

>  <SCORE.INTRA.REPUL>
0

>  <SCORE.INTRA.REPUL.0>
0

>  <SCORE.INTRA.VDW>
0.520425

>  <SCORE.INTRA.VDW.0>
-0.57285

>  <SCORE.INTRA.norm>
0.114958

>  <SCORE.RESTR>
0

>  <SCORE.RESTR.CAVITY>
0

>  <SCORE.RESTR.norm>
0

>  <SCORE.SYSTEM>
0

>  <SCORE.SYSTEM.CONST>
0

>  <SCORE.SYSTEM.DIHEDRAL>
0

>  <SCORE.SYSTEM.norm>
0

>  <SCORE.heavy>
24

>  <SCORE.norm>
-0.658819

$$$$
design_0
 OpenBabel05252019093D

 25 28  0  0  0  0  0  0  0  0999 V2000
   39.5681  -36.5031    2.6860 C   0  0  0  0  0  0  0  0  0  0  0  0
   39.7886  -36.7844    4.1450 C   0  0  0  0  0  0  0  0  0  0  0  0
   40.2637  -35.9072    5.0465 N   0  0  0  0  0  0  0  0  0  0  0  0
   40.3279  -36.4941    6.2394 N   0  0  0  0  0  0  0  0  0  0  0  0
   39.8939  -37.7608    6.1212 C   0  0  0  0  0  0  0  0  0  0  0  0
   39.8021  -38.7516    7.1978 C   0  0  0  0  0  0  0  0  0  0  0  0
   38.9171  -39.7966    7.1178 C   0  0  0  0  0  0  0  0  0  0  0  0
   38.8173  -40.7441    8.1279 C   0  0  0  0  0  0  0  0  0  0  0  0
   39.6103  -40.6651    9.2524 C   0  0  0  0  0  0  0  0  0  0  0  0
   39.5695  -41.6382   10.3729 C   0  0  0  0  0  0  0  0  0  0  0  0
   39.3530  -42.9954    9.9482 N   0  0  0  0  0  0  0  0  0  0  0  0
   40.0280  -43.5535    8.8372 C   0  0  0  0  0  0  0  0  0  0  0  0
   40.8334  -42.8701    8.1961 O   0  0  0  0  0  0  0  0  0  0  0  0
   39.7863  -44.9371    8.4319 C   0  0  0  0  0  0  0  0  0  0  0  0
   40.3962  -45.5541    7.3517 C   0  0  0  0  0  0  0  0  0  0  0  0
   39.9157  -46.8419    7.2910 C   0  0  0  0  0  0  0  0  0  0  0  0
   40.1532  -47.9067    6.4460 C   0  0  0  0  0  0  0  0  0  0  0  0
   39.5218  -49.1354    6.6044 C   0  0  0  0  0  0  0  0  0  0  0  0
   38.6237  -49.2832    7.6525 C   0  0  0  0  0  0  0  0  0  0  0  0
   38.3774  -48.2269    8.5041 C   0  0  0  0  0  0  0  0  0  0  0  0
   39.0125  -47.0078    8.3362 C   0  0  0  0  0  0  0  0  0  0  0  0
   38.9615  -45.8389    9.0006 N   0  0  0  0  0  0  0  0  0  0  0  0
   40.5051  -39.6083    9.3333 C   0  0  0  0  0  0  0  0  0  0  0  0
   40.5958  -38.6712    8.3218 C   0  0  0  0  0  0  0  0  0  0  0  0
   39.5670  -37.9202    4.8270 N   0  0  0  0  0  0  0  0  0  0  0  0
  1  2  1  0  0  0  0
  2  3  2  0  0  0  0
  3  4  1  0  0  0  0
  4  5  1  0  0  0  0
  5  6  1  0  0  0  0
  5 25  2  0  0  0  0
  6  7  2  0  0  0  0
  7  8  1  0  0  0  0
  8  9  2  0  0  0  0
  9 10  1  0  0  0  0
  9 23  1  0  0  0  0
 10 11  1  0  0  0  0
 11 12  1  0  0  0  0
 12 13  2  0  0  0  0
 12 14  1  0  0  0  0
 14 15  2  0  0  0  0
 15 16  1  0  0  0  0
 16 17  2  0  0  0  0
 17 18  1  0  0  0  0
 18 19  2  0  0  0  0
 19 20  1  0  0  0  0
 20 21  2  0  0  0  0
 21 22  1  0  0  0  0
 21 16  1  0  0  0  0
 22 14  1  0  0  0  0
 23 24  2  0  0  0  0
 24  6  1  0  0  0  0
 25  2  1  0  0  0  0
M  END
>  <CHROM.1>
155.14670884,36.86028021,43.81005156,179.42080720,39.69177505,-42.14962350
7.41163886,0.52113125,-1.50720969,-1.27079828

>  <Name>
design_0

>  <RI>
0

>  <Rbt.Current_Directory>
/home/ziqiaoxu/icml18-jtnn/VAEdesign

>  <Rbt.Executable>
rbdock ($Id: //depot/dev/client3/rdock/2013.1/src/exe/rbdock.cxx#4 $)

>  <Rbt.Library>
libRbt.so (2013.1, Build901 2013/11/27)

>  <Rbt.Parameter_File>
/export/apps/rDock/src/rDock_2013.1_src//data/scripts/dock.prm

>  <Rbt.Receptor>
/home/ziqiaoxu/icml18-jtnn/VAEdesign/targets/RdRp-SARS-CoV-2/pocket_docking.prm

>  <SCORE>
-21.092

>  <SCORE.INTER>
-23.0958

>  <SCORE.INTER.CONST>
1

>  <SCORE.INTER.POLAR>
-2.13807

>  <SCORE.INTER.REPUL>
0.00498347

>  <SCORE.INTER.ROT>
4

>  <SCORE.INTER.VDW>
-25.2513

>  <SCORE.INTER.norm>
-0.923833

>  <SCORE.INTRA>
1.6114

>  <SCORE.INTRA.DIHEDRAL>
2.24996

>  <SCORE.INTRA.DIHEDRAL.0>
1.92415

>  <SCORE.INTRA.POLAR>
0

>  <SCORE.INTRA.POLAR.0>
0

>  <SCORE.INTRA.REPUL>
0

>  <SCORE.INTRA.REPUL.0>
0

>  <SCORE.INTRA.VDW>
0.486421

>  <SCORE.INTRA.VDW.0>
-2.01392

>  <SCORE.INTRA.norm>
0.0644561

>  <SCORE.RESTR>
0.392447

>  <SCORE.RESTR.CAVITY>
0.392447

>  <SCORE.RESTR.norm>
0.0156979

>  <SCORE.SYSTEM>
0

>  <SCORE.SYSTEM.CONST>
0

>  <SCORE.SYSTEM.DIHEDRAL>
0

>  <SCORE.SYSTEM.norm>
0

>  <SCORE.heavy>
25

>  <SCORE.norm>
-0.843679

$$$$
design_0
 OpenBabel05252019093D

 25 27  0  0  0  0  0  0  0  0999 V2000
   40.2707  -46.0258   11.1512 N   0  0  0  0  0  0  0  0  0  0  0  0
   40.8551  -45.2325    9.7381 S   0  0  0  0  0  0  0  0  0  0  0  0
   40.0949  -43.9298    9.5939 O   0  0  0  0  0  0  0  0  0  0  0  0
   42.3071  -44.8722    9.8634 O   0  0  0  0  0  0  0  0  0  0  0  0
   40.5330  -46.1609    8.2936 C   0  0  0  0  0  0  0  0  0  0  0  0
   39.5254  -47.0972    8.2828 C   0  0  0  0  0  0  0  0  0  0  0  0
   39.2837  -47.8191    7.1363 C   0  0  0  0  0  0  0  0  0  0  0  0
   40.0386  -47.6104    6.0110 C   0  0  0  0  0  0  0  0  0  0  0  0
   41.0757  -46.6667    5.9757 C   0  0  0  0  0  0  0  0  0  0  0  0
   41.7874  -46.5242    4.7688 N   0  0  0  0  0  0  0  0  0  0  0  0
   42.9020  -45.7250    4.4969 C   0  0  0  0  0  0  0  0  0  0  0  0
   43.4352  -44.9942    5.3536 O   0  0  0  0  0  0  0  0  0  0  0  0
   43.5313  -45.7020    3.1298 C   0  0  0  0  0  0  0  0  0  0  0  0
   42.5261  -45.2265    2.1397 C   0  0  0  0  0  0  0  0  0  0  0  0
   43.0465  -45.1950    0.7335 C   0  0  0  0  0  0  0  0  0  0  0  0
   43.8402  -43.9919    0.4209 C   0  0  0  0  0  0  0  0  0  0  0  0
   45.1516  -43.9850   -0.0158 C   0  0  0  0  0  0  0  0  0  0  0  0
   45.4980  -42.6965   -0.1824 N   0  0  0  0  0  0  0  0  0  0  0  0
   44.4407  -41.9009    0.1378 C   0  0  0  0  0  0  0  0  0  0  0  0
   44.2696  -40.5327    0.1399 C   0  0  0  0  0  0  0  0  0  0  0  0
   43.0699  -39.9856    0.5170 C   0  0  0  0  0  0  0  0  0  0  0  0
   42.0223  -40.7985    0.8981 C   0  0  0  0  0  0  0  0  0  0  0  0
   42.1597  -42.1575    0.9068 C   0  0  0  0  0  0  0  0  0  0  0  0
   43.3705  -42.7015    0.5258 C   0  0  0  0  0  0  0  0  0  0  0  0
   41.2757  -45.9760    7.1394 C   0  0  0  0  0  0  0  0  0  0  0  0
  1  2  1  0  0  0  0
  2  3  2  0  0  0  0
  2  4  2  0  0  0  0
  2  5  1  0  0  0  0
  5  6  2  0  0  0  0
  6  7  1  0  0  0  0
  7  8  2  0  0  0  0
  8  9  1  0  0  0  0
  9 10  1  0  0  0  0
  9 25  2  0  0  0  0
 10 11  1  0  0  0  0
 11 12  2  0  0  0  0
 11 13  1  0  0  0  0
 13 14  1  0  0  0  0
 14 15  1  0  0  0  0
 15 16  1  0  0  0  0
 16 17  2  0  0  0  0
 17 18  1  0  0  0  0
 18 19  1  0  0  0  0
 19 20  2  0  0  0  0
 20 21  1  0  0  0  0
 21 22  2  0  0  0  0
 22 23  1  0  0  0  0
 23 24  2  0  0  0  0
 24 16  1  0  0  0  0
 24 19  1  0  0  0  0
 25  5  1  0  0  0  0
M  END
>  <CHROM.1>
164.59406092,22.34623711,-175.75009969,60.67759257,-178.73952743,-81.70749074
121.71185094,42.16791337,-44.60218234,4.70570706,-3.05417386,-1.23056005
-2.66750693

>  <Name>
design_0

>  <RI>
0

>  <Rbt.Current_Directory>
/home/ziqiaoxu/icml18-jtnn/VAEdesign

>  <Rbt.Executable>
rbdock ($Id: //depot/dev/client3/rdock/2013.1/src/exe/rbdock.cxx#4 $)

>  <Rbt.Library>
libRbt.so (2013.1, Build901 2013/11/27)

>  <Rbt.Parameter_File>
/export/apps/rDock/src/rDock_2013.1_src//data/scripts/dock.prm

>  <Rbt.Receptor>
/home/ziqiaoxu/icml18-jtnn/VAEdesign/targets/RdRp-SARS-CoV-2/pocket_docking.prm

>  <SCORE>
-27.6821

>  <SCORE.INTER>
-24.6778

>  <SCORE.INTER.CONST>
1

>  <SCORE.INTER.POLAR>
-3.47939

>  <SCORE.INTER.REPUL>
0

>  <SCORE.INTER.ROT>
7

>  <SCORE.INTER.VDW>
-25.2479

>  <SCORE.INTER.norm>
-0.987112

>  <SCORE.INTRA>
-3.0043

>  <SCORE.INTRA.DIHEDRAL>
-0.508119

>  <SCORE.INTRA.DIHEDRAL.0>
4.91065

>  <SCORE.INTRA.POLAR>
0

>  <SCORE.INTRA.POLAR.0>
0

>  <SCORE.INTRA.REPUL>
0

>  <SCORE.INTRA.REPUL.0>
0

>  <SCORE.INTRA.VDW>
-2.75024

>  <SCORE.INTRA.VDW.0>
0.558143

>  <SCORE.INTRA.norm>
-0.120172

>  <SCORE.RESTR>
0

>  <SCORE.RESTR.CAVITY>
0

>  <SCORE.RESTR.norm>
0

>  <SCORE.SYSTEM>
0

>  <SCORE.SYSTEM.CONST>
0

>  <SCORE.SYSTEM.DIHEDRAL>
0

>  <SCORE.SYSTEM.norm>
0

>  <SCORE.heavy>
25

>  <SCORE.norm>
-1.10728

$$$$
design_8
 OpenBabel05252019093D

 24 26  0  0  0  0  0  0  0  0999 V2000
   39.9769  -46.3370   10.1898 N   0  0  0  0  0  0  0  0  0  0  0  0
   39.2404  -46.6562    8.6546 S   0  0  0  0  0  0  0  0  0  0  0  0
   38.1832  -45.5665    8.4813 O   0  0  0  0  0  0  0  0  0  0  0  0
   38.5302  -47.9773    8.6778 O   0  0  0  0  0  0  0  0  0  0  0  0
   40.3838  -46.5190    7.3359 C   0  0  0  0  0  0  0  0  0  0  0  0
   40.0024  -46.9529    6.0775 C   0  0  0  0  0  0  0  0  0  0  0  0
   40.8424  -46.8501    5.0118 C   0  0  0  0  0  0  0  0  0  0  0  0
   42.1086  -46.2927    5.2029 C   0  0  0  0  0  0  0  0  0  0  0  0
   42.5471  -45.8386    6.4313 C   0  0  0  0  0  0  0  0  0  0  0  0
   43.8977  -45.1845    6.6056 C   0  0  0  0  0  0  0  0  0  0  0  0
   44.8431  -45.7165    5.6846 N   0  0  0  0  0  0  0  0  0  0  0  0
   44.8540  -45.3834    4.3149 C   0  0  0  0  0  0  0  0  0  0  0  0
   43.9837  -44.6196    3.8283 O   0  0  0  0  0  0  0  0  0  0  0  0
   45.9075  -45.9311    3.4660 C   0  0  0  0  0  0  0  0  0  0  0  0
   47.0882  -46.2483    4.1577 C   0  0  0  0  0  0  0  0  0  0  0  0
   48.1051  -46.7966    3.4163 C   0  0  0  0  0  0  0  0  0  0  0  0
   48.0108  -47.0373    2.0710 C   0  0  0  0  0  0  0  0  0  0  0  0
   46.8284  -46.7071    1.4427 C   0  0  0  0  0  0  0  0  0  0  0  0
   46.6972  -46.9380    0.0803 C   0  0  0  0  0  0  0  0  0  0  0  0
   45.5419  -46.6287   -0.6071 C   0  0  0  0  0  0  0  0  0  0  0  0
   44.4971  -46.0729    0.1101 C   0  0  0  0  0  0  0  0  0  0  0  0
   44.5673  -45.8203    1.4632 C   0  0  0  0  0  0  0  0  0  0  0  0
   45.7443  -46.1440    2.1254 C   0  0  0  0  0  0  0  0  0  0  0  0
   41.6500  -45.9741    7.4731 C   0  0  0  0  0  0  0  0  0  0  0  0
  1  2  1  0  0  0  0
  2  3  2  0  0  0  0
  2  4  2  0  0  0  0
  2  5  1  0  0  0  0
  5  6  2  0  0  0  0
  6  7  1  0  0  0  0
  7  8  2  0  0  0  0
  8  9  1  0  0  0  0
  9 10  1  0  0  0  0
  9 24  2  0  0  0  0
 10 11  1  0  0  0  0
 11 12  1  0  0  0  0
 12 13  2  0  0  0  0
 12 14  1  0  0  0  0
 14 15  2  0  0  0  0
 15 16  1  0  0  0  0
 16 17  2  0  0  0  0
 17 18  1  0  0  0  0
 18 19  2  0  0  0  0
 19 20  1  0  0  0  0
 20 21  2  0  0  0  0
 21 22  1  0  0  0  0
 22 23  2  0  0  0  0
 23 14  1  0  0  0  0
 23 18  1  0  0  0  0
 24  5  1  0  0  0  0
M  END
>  <CHROM.1>
155.62252145,169.70892920,-31.39473910,75.35113665,-25.91051755,43.14065082
-46.27612607,5.01243441,-2.37187301,-0.10115809,-1.64656488

>  <Name>
design_8

>  <RI>
0

>  <Rbt.Current_Directory>
/home/ziqiaoxu/icml18-jtnn/VAEdesign

>  <Rbt.Executable>
rbdock ($Id: //depot/dev/client3/rdock/2013.1/src/exe/rbdock.cxx#4 $)

>  <Rbt.Library>
libRbt.so (2013.1, Build901 2013/11/27)

>  <Rbt.Parameter_File>
/export/apps/rDock/src/rDock_2013.1_src//data/scripts/dock.prm

>  <Rbt.Receptor>
/home/ziqiaoxu/icml18-jtnn/VAEdesign/targets/RdRp-SARS-CoV-2/pocket_docking.prm

>  <SCORE>
-29.5521

>  <SCORE.INTER>
-25.8465

>  <SCORE.INTER.CONST>
1

>  <SCORE.INTER.POLAR>
-3.23489

>  <SCORE.INTER.REPUL>
0

>  <SCORE.INTER.ROT>
5

>  <SCORE.INTER.VDW>
-25.2478

>  <SCORE.INTER.norm>
-1.07694

>  <SCORE.INTRA>
-3.70559

>  <SCORE.INTRA.DIHEDRAL>
-9.75624

>  <SCORE.INTRA.DIHEDRAL.0>
16.2073

>  <SCORE.INTRA.POLAR>
0

>  <SCORE.INTRA.POLAR.0>
0

>  <SCORE.INTRA.REPUL>
0

>  <SCORE.INTRA.REPUL.0>
0

>  <SCORE.INTRA.VDW>
1.17252

>  <SCORE.INTRA.VDW.0>
-1.75998

>  <SCORE.INTRA.norm>
-0.1544

>  <SCORE.RESTR>
0

>  <SCORE.RESTR.CAVITY>
0

>  <SCORE.RESTR.norm>
0

>  <SCORE.SYSTEM>
0

>  <SCORE.SYSTEM.CONST>
0

>  <SCORE.SYSTEM.DIHEDRAL>
0

>  <SCORE.SYSTEM.norm>
0

>  <SCORE.heavy>
24

>  <SCORE.norm>
-1.23134

$$$$
design_0
 OpenBabel05252019093D

 26 28  0  0  0  0  0  0  0  0999 V2000
   42.0390  -40.1377    4.3795 C   0  0  0  0  0  0  0  0  0  0  0  0
   41.2528  -39.4878    5.4697 C   0  0  0  0  0  0  0  0  0  0  0  0
   40.9987  -40.1897    6.6559 C   0  0  0  0  0  0  0  0  0  0  0  0
   40.2819  -39.6275    7.6792 C   0  0  0  0  0  0  0  0  0  0  0  0
   39.9978  -40.2426    8.9151 N   0  0  0  0  0  0  0  0  0  0  0  0
   40.1097  -41.6121    9.2265 C   0  0  0  0  0  0  0  0  0  0  0  0
   40.5113  -42.4086    8.3287 O   0  0  0  0  0  0  0  0  0  0  0  0
   39.8008  -42.2343   10.5209 C   0  0  0  0  0  0  0  0  0  0  0  0
   39.5142  -43.6244   10.5154 N   0  0  0  0  0  0  0  0  0  0  0  0
   40.5795  -44.5262   10.2555 C   0  0  0  0  0  0  0  0  0  0  0  0
   41.7620  -44.0934   10.0329 O   0  0  0  0  0  0  0  0  0  0  0  0
   40.3115  -45.9751   10.2435 C   0  0  0  0  0  0  0  0  0  0  0  0
   40.1977  -46.5375    8.8962 C   0  0  0  0  0  0  0  0  0  0  0  0
   39.1045  -47.3226    8.5552 C   0  0  0  0  0  0  0  0  0  0  0  0
   38.9852  -47.8583    7.2896 C   0  0  0  0  0  0  0  0  0  0  0  0
   39.9375  -47.6403    6.3154 C   0  0  0  0  0  0  0  0  0  0  0  0
   41.0275  -46.8611    6.6455 C   0  0  0  0  0  0  0  0  0  0  0  0
   41.1429  -46.3255    7.9170 C   0  0  0  0  0  0  0  0  0  0  0  0
   39.8079  -38.3237    7.5019 C   0  0  0  0  0  0  0  0  0  0  0  0
   40.0536  -37.6302    6.3409 C   0  0  0  0  0  0  0  0  0  0  0  0
   40.7731  -38.2080    5.3275 C   0  0  0  0  0  0  0  0  0  0  0  0
   41.0237  -37.4912    4.1353 N   0  0  0  0  0  0  0  0  0  0  0  0
   40.2165  -36.7029    3.4342 C   0  0  0  0  0  0  0  0  0  0  0  0
   40.8975  -36.2448    2.3787 N   0  0  0  0  0  0  0  0  0  0  0  0
   42.1331  -36.7492    2.4222 C   0  0  0  0  0  0  0  0  0  0  0  0
   42.1856  -37.5101    3.5084 N   0  0  0  0  0  0  0  0  0  0  0  0
  1  2  1  0  0  0  0
  2  3  2  0  0  0  0
  3  4  1  0  0  0  0
  4  5  1  0  0  0  0
  4 19  2  0  0  0  0
  5  6  1  0  0  0  0
  6  7  2  0  0  0  0
  6  8  1  0  0  0  0
  8  9  1  0  0  0  0
  9 10  1  0  0  0  0
 10 11  2  0  0  0  0
 10 12  1  0  0  0  0
 12 13  1  0  0  0  0
 13 14  2  0  0  0  0
 14 15  1  0  0  0  0
 15 16  2  0  0  0  0
 16 17  1  0  0  0  0
 17 18  2  0  0  0  0
 18 13  1  0  0  0  0
 19 20  1  0  0  0  0
 20 21  2  0  0  0  0
 21 22  1  0  0  0  0
 21  2  1  0  0  0  0
 22 23  1  0  0  0  0
 23 24  2  0  0  0  0
 24 25  1  0  0  0  0
 25 26  2  0  0  0  0
 26 22  1  0  0  0  0
M  END
>  <CHROM.1>
-15.75746311,158.05172958,70.36766026,101.44625772,-129.14658085,138.72375620
40.57309345,-41.74550599,7.06352720,-0.96468134,-1.39872602,-3.04118079

>  <Name>
design_0

>  <RI>
0

>  <Rbt.Current_Directory>
/home/ziqiaoxu/icml18-jtnn/VAEdesign

>  <Rbt.Executable>
rbdock ($Id: //depot/dev/client3/rdock/2013.1/src/exe/rbdock.cxx#4 $)

>  <Rbt.Library>
libRbt.so (2013.1, Build901 2013/11/27)

>  <Rbt.Parameter_File>
/export/apps/rDock/src/rDock_2013.1_src//data/scripts/dock.prm

>  <Rbt.Receptor>
/home/ziqiaoxu/icml18-jtnn/VAEdesign/targets/RdRp-SARS-CoV-2/pocket_docking.prm

>  <SCORE>
-23.2429

>  <SCORE.INTER>
-20.7534

>  <SCORE.INTER.CONST>
1

>  <SCORE.INTER.POLAR>
-2.04042

>  <SCORE.INTER.REPUL>
0.00635918

>  <SCORE.INTER.ROT>
6

>  <SCORE.INTER.VDW>
-25.2478

>  <SCORE.INTER.norm>
-0.798209

>  <SCORE.INTRA>
-2.49827

>  <SCORE.INTRA.DIHEDRAL>
-7.33248

>  <SCORE.INTRA.DIHEDRAL.0>
18.3395

>  <SCORE.INTRA.POLAR>
0

>  <SCORE.INTRA.POLAR.0>
0

>  <SCORE.INTRA.REPUL>
0

>  <SCORE.INTRA.REPUL.0>
0

>  <SCORE.INTRA.VDW>
1.16797

>  <SCORE.INTRA.VDW.0>
-2.06849

>  <SCORE.INTRA.norm>
-0.0960875

>  <SCORE.RESTR>
0.00883992

>  <SCORE.RESTR.CAVITY>
0.00883992

>  <SCORE.RESTR.norm>
0.000339997

>  <SCORE.SYSTEM>
0

>  <SCORE.SYSTEM.CONST>
0

>  <SCORE.SYSTEM.DIHEDRAL>
0

>  <SCORE.SYSTEM.norm>
0

>  <SCORE.heavy>
26

>  <SCORE.norm>
-0.893956

$$$$
design_4
 OpenBabel05252019093D

 26 29  0  0  0  0  0  0  0  0999 V2000
   44.7730  -44.2489    4.8733 C   0  0  0  0  0  0  0  0  0  0  0  0
   43.5770  -45.1590    4.8318 C   0  0  0  0  0  0  0  0  0  0  0  0
   43.0676  -45.7782    3.7525 N   0  0  0  0  0  0  0  0  0  0  0  0
   42.0164  -46.4790    4.1226 N   0  0  0  0  0  0  0  0  0  0  0  0
   41.8145  -46.3323    5.4708 C   0  0  0  0  0  0  0  0  0  0  0  0
   40.7326  -46.9801    6.1790 C   0  0  0  0  0  0  0  0  0  0  0  0
   40.0821  -48.0767    5.6879 C   0  0  0  0  0  0  0  0  0  0  0  0
   39.0486  -48.7003    6.3560 C   0  0  0  0  0  0  0  0  0  0  0  0
   38.6460  -48.2105    7.5649 C   0  0  0  0  0  0  0  0  0  0  0  0
   39.2789  -47.1018    8.0971 C   0  0  0  0  0  0  0  0  0  0  0  0
   38.8148  -46.6397    9.4100 C   0  0  0  0  0  0  0  0  0  0  0  0
   39.9623  -46.1162   10.1523 N   0  0  0  0  0  0  0  0  0  0  0  0
   40.1414  -44.7422   10.3970 C   0  0  0  0  0  0  0  0  0  0  0  0
   39.3210  -43.8720    9.9688 O   0  0  0  0  0  0  0  0  0  0  0  0
   41.3276  -44.2923   11.1787 C   0  0  0  0  0  0  0  0  0  0  0  0
   42.5414  -44.2975   10.3545 C   0  0  0  0  0  0  0  0  0  0  0  0
   42.5094  -44.6017    8.9798 C   0  0  0  0  0  0  0  0  0  0  0  0
   43.7445  -44.5159    8.5289 N   0  0  0  0  0  0  0  0  0  0  0  0
   44.5870  -44.1775    9.4992 C   0  0  0  0  0  0  0  0  0  0  0  0
   45.9266  -43.9640    9.5606 C   0  0  0  0  0  0  0  0  0  0  0  0
   46.5740  -43.6072   10.7524 C   0  0  0  0  0  0  0  0  0  0  0  0
   45.8423  -43.4656   11.9042 C   0  0  0  0  0  0  0  0  0  0  0  0
   44.4852  -43.6878   11.8221 C   0  0  0  0  0  0  0  0  0  0  0  0
   43.8403  -44.0340   10.6788 C   0  0  0  0  0  0  0  0  0  0  0  0
   40.3202  -46.4837    7.4098 C   0  0  0  0  0  0  0  0  0  0  0  0
   42.7906  -45.5188    5.8603 N   0  0  0  0  0  0  0  0  0  0  0  0
  1  2  1  0  0  0  0
  2  3  2  0  0  0  0
  3  4  1  0  0  0  0
  4  5  1  0  0  0  0
  5  6  1  0  0  0  0
  5 26  2  0  0  0  0
  6  7  2  0  0  0  0
  7  8  1  0  0  0  0
  8  9  2  0  0  0  0
  9 10  1  0  0  0  0
 10 11  1  0  0  0  0
 10 25  2  0  0  0  0
 11 12  1  0  0  0  0
 12 13  1  0  0  0  0
 13 14  2  0  0  0  0
 13 15  1  0  0  0  0
 15 16  1  0  0  0  0
 16 17  2  0  0  0  0
 17 18  1  0  0  0  0
 18 19  1  0  0  0  0
 19 20  2  0  0  0  0
 20 21  1  0  0  0  0
 21 22  2  0  0  0  0
 22 23  1  0  0  0  0
 23 24  2  0  0  0  0
 24 16  1  0  0  0  0
 24 19  1  0  0  0  0
 25  6  1  0  0  0  0
 26  2  1  0  0  0  0
M  END
>  <CHROM.1>
20.31516776,145.49039716,108.35140985,77.74767364,4.35793464,42.12725704
-45.41815653,8.18212052,-2.28757792,0.41559713,1.28103519

>  <Name>
design_4

>  <RI>
0

>  <Rbt.Current_Directory>
/home/ziqiaoxu/icml18-jtnn/VAEdesign

>  <Rbt.Executable>
rbdock ($Id: //depot/dev/client3/rdock/2013.1/src/exe/rbdock.cxx#4 $)

>  <Rbt.Library>
libRbt.so (2013.1, Build901 2013/11/27)

>  <Rbt.Parameter_File>
/export/apps/rDock/src/rDock_2013.1_src//data/scripts/dock.prm

>  <Rbt.Receptor>
/home/ziqiaoxu/icml18-jtnn/VAEdesign/targets/RdRp-SARS-CoV-2/pocket_docking.prm

>  <SCORE>
-23.4097

>  <SCORE.INTER>
-21.9525

>  <SCORE.INTER.CONST>
1

>  <SCORE.INTER.POLAR>
-2.08972

>  <SCORE.INTER.REPUL>
0

>  <SCORE.INTER.ROT>
5

>  <SCORE.INTER.VDW>
-25.2475

>  <SCORE.INTER.norm>
-0.844328

>  <SCORE.INTRA>
-1.45717

>  <SCORE.INTRA.DIHEDRAL>
0.973646

>  <SCORE.INTRA.DIHEDRAL.0>
3.83897

>  <SCORE.INTRA.POLAR>
-0.422866

>  <SCORE.INTRA.POLAR.0>
0

>  <SCORE.INTRA.REPUL>
0

>  <SCORE.INTRA.REPUL.0>
0

>  <SCORE.INTRA.VDW>
-0.506242

>  <SCORE.INTRA.VDW.0>
-1.77719

>  <SCORE.INTRA.norm>
-0.0560448

>  <SCORE.RESTR>
0

>  <SCORE.RESTR.CAVITY>
0

>  <SCORE.RESTR.norm>
0

>  <SCORE.SYSTEM>
0

>  <SCORE.SYSTEM.CONST>
0

>  <SCORE.SYSTEM.DIHEDRAL>
0

>  <SCORE.SYSTEM.norm>
0

>  <SCORE.heavy>
26

>  <SCORE.norm>
-0.900373

$$$$
design_6
 OpenBabel05252019093D

 21 22  0  0  0  0  0  0  0  0999 V2000
   37.6155  -46.2819    1.6291 N   0  0  0  0  0  0  0  0  0  0  0  0
   38.5717  -45.7451    2.5154 C   0  0  0  0  0  0  0  0  0  0  0  0
   39.5626  -45.1512    2.0084 O   0  0  0  0  0  0  0  0  0  0  0  0
   38.4039  -45.8803    3.9570 C   0  0  0  0  0  0  0  0  0  0  0  0
   39.4042  -45.4367    4.8022 C   0  0  0  0  0  0  0  0  0  0  0  0
   39.2556  -45.5674    6.1889 C   0  0  0  0  0  0  0  0  0  0  0  0
   38.0975  -46.1459    6.6966 C   0  0  0  0  0  0  0  0  0  0  0  0
   38.0324  -46.2984    8.1522 C   0  0  0  0  0  0  0  0  0  0  0  0
   39.1954  -46.0122    8.8584 N   0  0  0  0  0  0  0  0  0  0  0  0
   40.3022  -45.7397    9.5309 C   0  0  0  0  0  0  0  0  0  0  0  0
   40.3635  -45.6447   10.8210 O   0  0  0  0  0  0  0  0  0  0  0  0
   41.5943  -45.5172    8.8496 C   0  0  0  0  0  0  0  0  0  0  0  0
   41.8804  -46.0584    7.6487 C   0  0  0  0  0  0  0  0  0  0  0  0
   43.1097  -45.7980    7.0326 C   0  0  0  0  0  0  0  0  0  0  0  0
   44.0209  -44.9911    7.6596 C   0  0  0  0  0  0  0  0  0  0  0  0
   45.5629  -44.6500    6.9223 Cl  0  0  0  0  0  0  0  0  0  0  0  0
   43.6993  -44.4401    8.9075 C   0  0  0  0  0  0  0  0  0  0  0  0
   44.9041  -43.4087    9.6557 Cl  0  0  0  0  0  0  0  0  0  0  0  0
   42.5105  -44.6944    9.4983 C   0  0  0  0  0  0  0  0  0  0  0  0
   37.1368  -46.5695    5.8506 C   0  0  0  0  0  0  0  0  0  0  0  0
   37.2632  -46.4493    4.4702 C   0  0  0  0  0  0  0  0  0  0  0  0
  1  2  1  0  0  0  0
  2  3  2  0  0  0  0
  2  4  1  0  0  0  0
  4  5  2  0  0  0  0
  5  6  1  0  0  0  0
  6  7  2  0  0  0  0
  7  8  1  0  0  0  0
  7 20  1  0  0  0  0
  8  9  1  0  0  0  0
  9 10  1  0  0  0  0
 10 11  2  0  0  0  0
 10 12  1  0  0  0  0
 12 13  2  0  0  0  0
 13 14  1  0  0  0  0
 14 15  2  0  0  0  0
 15 16  1  0  0  0  0
 15 17  1  0  0  0  0
 17 18  1  0  0  0  0
 17 19  2  0  0  0  0
 19 12  1  0  0  0  0
 20 21  2  0  0  0  0
 21  4  1  0  0  0  0
M  END
>  <CHROM.1>
175.06634206,-8.05560649,159.88074671,-26.63082278,41.09588783,-45.34740063
6.92231964,-2.48616444,0.26712546,1.57934092

>  <Name>
design_6

>  <RI>
0

>  <Rbt.Current_Directory>
/home/ziqiaoxu/icml18-jtnn/VAEdesign

>  <Rbt.Executable>
rbdock ($Id: //depot/dev/client3/rdock/2013.1/src/exe/rbdock.cxx#4 $)

>  <Rbt.Library>
libRbt.so (2013.1, Build901 2013/11/27)

>  <Rbt.Parameter_File>
/export/apps/rDock/src/rDock_2013.1_src//data/scripts/dock.prm

>  <Rbt.Receptor>
/home/ziqiaoxu/icml18-jtnn/VAEdesign/targets/RdRp-SARS-CoV-2/pocket_docking.prm

>  <SCORE>
-25.1814

>  <SCORE.INTER>
-22.4134

>  <SCORE.INTER.CONST>
1

>  <SCORE.INTER.POLAR>
-1.93136

>  <SCORE.INTER.REPUL>
0

>  <SCORE.INTER.ROT>
4

>  <SCORE.INTER.VDW>
-25.2468

>  <SCORE.INTER.norm>
-1.0673

>  <SCORE.INTRA>
-2.76797

>  <SCORE.INTRA.DIHEDRAL>
-0.661297

>  <SCORE.INTRA.DIHEDRAL.0>
4.6596

>  <SCORE.INTRA.POLAR>
0

>  <SCORE.INTRA.POLAR.0>
0

>  <SCORE.INTRA.REPUL>
0

>  <SCORE.INTRA.REPUL.0>
0

>  <SCORE.INTRA.VDW>
-2.43732

>  <SCORE.INTRA.VDW.0>
2.05304

>  <SCORE.INTRA.norm>
-0.131808

>  <SCORE.RESTR>
0

>  <SCORE.RESTR.CAVITY>
0

>  <SCORE.RESTR.norm>
0

>  <SCORE.SYSTEM>
0

>  <SCORE.SYSTEM.CONST>
0

>  <SCORE.SYSTEM.DIHEDRAL>
0

>  <SCORE.SYSTEM.norm>
0

>  <SCORE.heavy>
21

>  <SCORE.norm>
-1.19911

$$$$
design_15
 OpenBabel05252019093D

 25 27  0  0  0  0  0  0  0  0999 V2000
   44.7455  -45.0675   -0.5009 N   0  0  0  0  0  0  0  0  0  0  0  0
   43.5788  -45.0970    0.3569 C   0  0  0  0  0  0  0  0  0  0  0  0
   43.1551  -46.2333    0.5836 O   0  0  0  0  0  0  0  0  0  0  0  0
   43.0566  -43.8409    0.8357 C   0  0  0  0  0  0  0  0  0  0  0  0
   43.3410  -42.6678    0.1049 C   0  0  0  0  0  0  0  0  0  0  0  0
   42.9484  -41.4374    0.5064 C   0  0  0  0  0  0  0  0  0  0  0  0
   42.2433  -41.3461    1.6784 C   0  0  0  0  0  0  0  0  0  0  0  0
   41.9343  -42.4535    2.4336 C   0  0  0  0  0  0  0  0  0  0  0  0
   42.3345  -43.7243    2.0270 C   0  0  0  0  0  0  0  0  0  0  0  0
   41.9366  -44.8458    2.7562 N   0  0  0  0  0  0  0  0  0  0  0  0
   41.8590  -45.0162    4.1511 C   0  0  0  0  0  0  0  0  0  0  0  0
   42.1773  -44.1224    4.9474 O   0  0  0  0  0  0  0  0  0  0  0  0
   41.3942  -46.2694    4.7194 N   0  0  0  0  0  0  0  0  0  0  0  0
   41.3012  -46.4553    6.1317 C   0  0  0  0  0  0  0  0  0  0  0  0
   40.2993  -47.4203    6.6058 C   0  0  0  0  0  0  0  0  0  0  0  0
   39.8035  -48.3743    5.7598 C   0  0  0  0  0  0  0  0  0  0  0  0
   38.8707  -49.3212    6.2104 C   0  0  0  0  0  0  0  0  0  0  0  0
   38.4329  -49.3152    7.5108 C   0  0  0  0  0  0  0  0  0  0  0  0
   38.9459  -48.3479    8.3416 C   0  0  0  0  0  0  0  0  0  0  0  0
   39.8566  -47.4146    7.9213 C   0  0  0  0  0  0  0  0  0  0  0  0
   40.3965  -46.4099    8.7615 N   0  0  0  0  0  0  0  0  0  0  0  0
   39.8204  -45.9767    9.8923 C   0  0  0  0  0  0  0  0  0  0  0  0
   40.6083  -45.0024   10.4564 C   0  0  0  0  0  0  0  0  0  0  0  0
   41.6933  -44.8594    9.6185 C   0  0  0  0  0  0  0  0  0  0  0  0
   41.5138  -45.7297    8.6163 N   0  0  0  0  0  0  0  0  0  0  0  0
  1  2  1  0  0  0  0
  2  3  2  0  0  0  0
  2  4  1  0  0  0  0
  4  5  2  0  0  0  0
  5  6  1  0  0  0  0
  6  7  2  0  0  0  0
  7  8  1  0  0  0  0
  8  9  2  0  0  0  0
  9 10  1  0  0  0  0
  9  4  1  0  0  0  0
 10 11  1  0  0  0  0
 11 12  2  0  0  0  0
 11 13  1  0  0  0  0
 13 14  1  0  0  0  0
 14 15  1  0  0  0  0
 15 16  2  0  0  0  0
 16 17  1  0  0  0  0
 17 18  2  0  0  0  0
 18 19  1  0  0  0  0
 19 20  2  0  0  0  0
 20 21  1  0  0  0  0
 20 15  1  0  0  0  0
 21 22  1  0  0  0  0
 22 23  2  0  0  0  0
 23 24  1  0  0  0  0
 24 25  2  0  0  0  0
 25 21  1  0  0  0  0
M  END
>  <CHROM.1>
23.26197453,143.62016498,152.57817908,20.01584219,158.29315284,41.49422479
-45.47436343,4.76233744,0.46712435,-1.16015304,-2.21292098

>  <Name>
design_15

>  <RI>
0

>  <Rbt.Current_Directory>
/home/ziqiaoxu/icml18-jtnn/VAEdesign

>  <Rbt.Executable>
rbdock ($Id: //depot/dev/client3/rdock/2013.1/src/exe/rbdock.cxx#4 $)

>  <Rbt.Library>
libRbt.so (2013.1, Build901 2013/11/27)

>  <Rbt.Parameter_File>
/export/apps/rDock/src/rDock_2013.1_src//data/scripts/dock.prm

>  <Rbt.Receptor>
/home/ziqiaoxu/icml18-jtnn/VAEdesign/targets/RdRp-SARS-CoV-2/pocket_docking.prm

>  <SCORE>
-20.8075

>  <SCORE.INTER>
-20.8866

>  <SCORE.INTER.CONST>
1

>  <SCORE.INTER.POLAR>
-1.78204

>  <SCORE.INTER.REPUL>
0.00378591

>  <SCORE.INTER.ROT>
5

>  <SCORE.INTER.VDW>
-25.2466

>  <SCORE.INTER.norm>
-0.835464

>  <SCORE.INTRA>
0.0790818

>  <SCORE.INTRA.DIHEDRAL>
-4.46664

>  <SCORE.INTRA.DIHEDRAL.0>
15.7193

>  <SCORE.INTRA.POLAR>
0

>  <SCORE.INTRA.POLAR.0>
0

>  <SCORE.INTRA.REPUL>
0

>  <SCORE.INTRA.REPUL.0>
0

>  <SCORE.INTRA.VDW>
2.3124

>  <SCORE.INTRA.VDW.0>
-2.24161

>  <SCORE.INTRA.norm>
0.00316327

>  <SCORE.RESTR>
0

>  <SCORE.RESTR.CAVITY>
0

>  <SCORE.RESTR.norm>
0

>  <SCORE.SYSTEM>
0

>  <SCORE.SYSTEM.CONST>
0

>  <SCORE.SYSTEM.DIHEDRAL>
0

>  <SCORE.SYSTEM.norm>
0

>  <SCORE.heavy>
25

>  <SCORE.norm>
-0.832301

$$$$
design_11
 OpenBabel05252019093D

 25 28  0  0  0  0  0  0  0  0999 V2000
   49.1146  -48.1434    0.2692 C   0  0  0  0  0  0  0  0  0  0  0  0
   48.4963  -47.5666    1.5087 C   0  0  0  0  0  0  0  0  0  0  0  0
   48.9937  -47.6432    2.7611 N   0  0  0  0  0  0  0  0  0  0  0  0
   48.1639  -47.0174    3.5730 N   0  0  0  0  0  0  0  0  0  0  0  0
   47.1147  -46.5171    2.9001 C   0  0  0  0  0  0  0  0  0  0  0  0
   45.9984  -45.7705    3.4589 C   0  0  0  0  0  0  0  0  0  0  0  0
   45.1145  -45.0947    2.6569 C   0  0  0  0  0  0  0  0  0  0  0  0
   44.0736  -44.4079    3.2440 C   0  0  0  0  0  0  0  0  0  0  0  0
   43.9156  -44.3965    4.6248 C   0  0  0  0  0  0  0  0  0  0  0  0
   44.7859  -45.0656    5.4561 C   0  0  0  0  0  0  0  0  0  0  0  0
   44.6788  -45.1031    6.9350 C   0  0  0  0  0  0  0  0  0  0  0  0
   43.4015  -45.6917    7.3090 N   0  0  0  0  0  0  0  0  0  0  0  0
   42.6616  -45.1786    8.3790 C   0  0  0  0  0  0  0  0  0  0  0  0
   43.0853  -44.1769    9.0232 O   0  0  0  0  0  0  0  0  0  0  0  0
   41.3945  -45.7472    8.7991 C   0  0  0  0  0  0  0  0  0  0  0  0
   40.7061  -45.4193    9.9839 C   0  0  0  0  0  0  0  0  0  0  0  0
   39.5509  -46.0914   10.0020 N   0  0  0  0  0  0  0  0  0  0  0  0
   39.4142  -46.8505    8.9102 C   0  0  0  0  0  0  0  0  0  0  0  0
   38.4238  -47.7350    8.4635 C   0  0  0  0  0  0  0  0  0  0  0  0
   38.5624  -48.4142    7.2793 C   0  0  0  0  0  0  0  0  0  0  0  0
   39.6866  -48.2141    6.5384 C   0  0  0  0  0  0  0  0  0  0  0  0
   40.6886  -47.3294    6.9734 C   0  0  0  0  0  0  0  0  0  0  0  0
   40.5717  -46.6373    8.1527 C   0  0  0  0  0  0  0  0  0  0  0  0
   45.8276  -45.7489    4.8223 C   0  0  0  0  0  0  0  0  0  0  0  0
   47.3479  -46.8739    1.6187 N   0  0  0  0  0  0  0  0  0  0  0  0
  1  2  1  0  0  0  0
  2  3  2  0  0  0  0
  3  4  1  0  0  0  0
  4  5  1  0  0  0  0
  5  6  1  0  0  0  0
  5 25  2  0  0  0  0
  6  7  2  0  0  0  0
  7  8  1  0  0  0  0
  8  9  2  0  0  0  0
  9 10  1  0  0  0  0
 10 11  1  0  0  0  0
 10 24  2  0  0  0  0
 11 12  1  0  0  0  0
 12 13  1  0  0  0  0
 13 14  2  0  0  0  0
 13 15  1  0  0  0  0
 15 16  2  0  0  0  0
 16 17  1  0  0  0  0
 17 18  1  0  0  0  0
 18 19  2  0  0  0  0
 19 20  1  0  0  0  0
 20 21  2  0  0  0  0
 21 22  1  0  0  0  0
 22 23  2  0  0  0  0
 23 15  1  0  0  0  0
 23 18  1  0  0  0  0
 24  6  1  0  0  0  0
 25  2  1  0  0  0  0
M  END
>  <CHROM.1>
167.60154726,59.80191800,-140.19993599,169.45861530,43.72311918,-46.27264961
5.74510708,0.52392085,-0.48616447,-2.29788926

>  <Name>
design_11

>  <RI>
0

>  <Rbt.Current_Directory>
/home/ziqiaoxu/icml18-jtnn/VAEdesign

>  <Rbt.Executable>
rbdock ($Id: //depot/dev/client3/rdock/2013.1/src/exe/rbdock.cxx#4 $)

>  <Rbt.Library>
libRbt.so (2013.1, Build901 2013/11/27)

>  <Rbt.Parameter_File>
/export/apps/rDock/src/rDock_2013.1_src//data/scripts/dock.prm

>  <Rbt.Receptor>
/home/ziqiaoxu/icml18-jtnn/VAEdesign/targets/RdRp-SARS-CoV-2/pocket_docking.prm

>  <SCORE>
-22.1418

>  <SCORE.INTER>
-21.6251

>  <SCORE.INTER.CONST>
1

>  <SCORE.INTER.POLAR>
-1.69991

>  <SCORE.INTER.REPUL>
0

>  <SCORE.INTER.ROT>
4

>  <SCORE.INTER.VDW>
-25.2454

>  <SCORE.INTER.norm>
-0.865002

>  <SCORE.INTRA>
-0.516724

>  <SCORE.INTRA.DIHEDRAL>
-1.88692

>  <SCORE.INTRA.DIHEDRAL.0>
5.00728

>  <SCORE.INTRA.POLAR>
0

>  <SCORE.INTRA.POLAR.0>
0

>  <SCORE.INTRA.REPUL>
0

>  <SCORE.INTRA.REPUL.0>
0

>  <SCORE.INTRA.VDW>
0.426734

>  <SCORE.INTRA.VDW.0>
-2.061

>  <SCORE.INTRA.norm>
-0.020669

>  <SCORE.RESTR>
0

>  <SCORE.RESTR.CAVITY>
0

>  <SCORE.RESTR.norm>
0

>  <SCORE.SYSTEM>
0

>  <SCORE.SYSTEM.CONST>
0

>  <SCORE.SYSTEM.DIHEDRAL>
0

>  <SCORE.SYSTEM.norm>
0

>  <SCORE.heavy>
25

>  <SCORE.norm>
-0.885671

$$$$
design_5
 OpenBabel05252019093D

 23 25  0  0  0  0  0  0  0  0999 V2000
   41.4583  -44.7831    8.1662 O   0  0  0  0  0  0  0  0  0  0  0  0
   40.4883  -45.3860    8.7255 C   0  0  0  0  0  0  0  0  0  0  0  0
   39.9341  -44.8047    9.8880 N   0  0  0  0  0  0  0  0  0  0  0  0
   40.4567  -43.5497   10.4323 C   0  0  0  0  0  0  0  0  0  0  0  0
   39.3090  -42.6270   10.7719 C   0  0  0  0  0  0  0  0  0  0  0  0
   39.5747  -41.3496   10.0927 N   0  0  0  0  0  0  0  0  0  0  0  0
   39.4227  -41.2785    8.6881 C   0  0  0  0  0  0  0  0  0  0  0  0
   39.0642  -42.3156    8.0570 O   0  0  0  0  0  0  0  0  0  0  0  0
   39.6649  -40.0561    7.9478 C   0  0  0  0  0  0  0  0  0  0  0  0
   40.3693  -39.0136    8.5024 C   0  0  0  0  0  0  0  0  0  0  0  0
   40.5674  -37.8916    7.7493 N   0  0  0  0  0  0  0  0  0  0  0  0
   40.0853  -37.8092    6.4974 C   0  0  0  0  0  0  0  0  0  0  0  0
   40.1626  -36.7814    5.5570 C   0  0  0  0  0  0  0  0  0  0  0  0
   39.5020  -37.2108    4.4359 C   0  0  0  0  0  0  0  0  0  0  0  0
   39.0353  -38.4476    4.6675 N   0  0  0  0  0  0  0  0  0  0  0  0
   39.3796  -38.8349    5.9218 C   0  0  0  0  0  0  0  0  0  0  0  0
   39.1590  -39.9818    6.6478 C   0  0  0  0  0  0  0  0  0  0  0  0
   39.9675  -46.6228    8.1952 C   0  0  0  0  0  0  0  0  0  0  0  0
   40.5277  -47.2438    7.1122 C   0  0  0  0  0  0  0  0  0  0  0  0
   39.9735  -48.4474    6.6404 C   0  0  0  0  0  0  0  0  0  0  0  0
   38.8780  -48.9795    7.2759 C   0  0  0  0  0  0  0  0  0  0  0  0
   38.3358  -48.3689    8.3323 N   0  0  0  0  0  0  0  0  0  0  0  0
   38.8698  -47.2078    8.7880 C   0  0  0  0  0  0  0  0  0  0  0  0
  1  2  2  0  0  0  0
  2  3  1  0  0  0  0
  2 18  1  0  0  0  0
  3  4  1  0  0  0  0
  4  5  1  0  0  0  0
  5  6  1  0  0  0  0
  6  7  1  0  0  0  0
  7  8  2  0  0  0  0
  7  9  1  0  0  0  0
  9 10  2  0  0  0  0
 10 11  1  0  0  0  0
 11 12  2  0  0  0  0
 12 13  1  0  0  0  0
 13 14  2  0  0  0  0
 14 15  1  0  0  0  0
 15 16  1  0  0  0  0
 16 17  2  0  0  0  0
 16 12  1  0  0  0  0
 17  9  1  0  0  0  0
 18 19  2  0  0  0  0
 19 20  1  0  0  0  0
 20 21  2  0  0  0  0
 21 22  1  0  0  0  0
 22 23  2  0  0  0  0
 23 18  1  0  0  0  0
M  END
>  <CHROM.1>
134.03586230,-126.79245429,72.62119888,16.73246701,3.40674102,39.74648518
-42.58931756,7.82476997,-1.72172621,-1.46246484,-0.35149095

>  <Name>
design_5

>  <RI>
0

>  <Rbt.Current_Directory>
/home/ziqiaoxu/icml18-jtnn/VAEdesign

>  <Rbt.Executable>
rbdock ($Id: //depot/dev/client3/rdock/2013.1/src/exe/rbdock.cxx#4 $)

>  <Rbt.Library>
libRbt.so (2013.1, Build901 2013/11/27)

>  <Rbt.Parameter_File>
/export/apps/rDock/src/rDock_2013.1_src//data/scripts/dock.prm

>  <Rbt.Receptor>
/home/ziqiaoxu/icml18-jtnn/VAEdesign/targets/RdRp-SARS-CoV-2/pocket_docking.prm

>  <SCORE>
-20.6442

>  <SCORE.INTER>
-22.6718

>  <SCORE.INTER.CONST>
1

>  <SCORE.INTER.POLAR>
-2.30191

>  <SCORE.INTER.REPUL>
0

>  <SCORE.INTER.ROT>
5

>  <SCORE.INTER.VDW>
-25.2453

>  <SCORE.INTER.norm>
-0.985729

>  <SCORE.INTRA>
2.01919

>  <SCORE.INTRA.DIHEDRAL>
5.9044

>  <SCORE.INTRA.DIHEDRAL.0>
2.93305

>  <SCORE.INTRA.POLAR>
0

>  <SCORE.INTRA.POLAR.0>
0

>  <SCORE.INTRA.REPUL>
0

>  <SCORE.INTRA.REPUL.0>
0

>  <SCORE.INTRA.VDW>
-0.933008

>  <SCORE.INTRA.VDW.0>
0.430307

>  <SCORE.INTRA.norm>
0.0877909

>  <SCORE.RESTR>
0.00841685

>  <SCORE.RESTR.CAVITY>
0.00841685

>  <SCORE.RESTR.norm>
0.00036595

>  <SCORE.SYSTEM>
0

>  <SCORE.SYSTEM.CONST>
0

>  <SCORE.SYSTEM.DIHEDRAL>
0

>  <SCORE.SYSTEM.norm>
0

>  <SCORE.heavy>
23

>  <SCORE.norm>
-0.897572

$$$$
design_4
 OpenBabel05252019093D

 24 26  0  0  0  0  0  0  0  0999 V2000
   40.5255  -38.6704    1.2144 C   0  0  0  0  0  0  0  0  0  0  0  0
   40.1391  -37.8215    2.3985 C   0  0  0  0  0  0  0  0  0  0  0  0
   40.4511  -38.0302    3.7188 C   0  0  0  0  0  0  0  0  0  0  0  0
   39.8973  -37.0126    4.4655 C   0  0  0  0  0  0  0  0  0  0  0  0
   40.0167  -36.8850    5.9619 C   0  0  0  0  0  0  0  0  0  0  0  0
   39.8255  -38.2329    6.6218 C   0  0  0  0  0  0  0  0  0  0  0  0
   40.6036  -38.2154    7.9096 C   0  0  0  0  0  0  0  0  0  0  0  0
   40.2413  -39.2417    8.8415 N   0  0  0  0  0  0  0  0  0  0  0  0
   40.2150  -40.6235    8.5066 C   0  0  0  0  0  0  0  0  0  0  0  0
   40.5123  -40.9638    7.3609 O   0  0  0  0  0  0  0  0  0  0  0  0
   39.8501  -41.5648    9.4927 N   0  0  0  0  0  0  0  0  0  0  0  0
   39.7703  -42.9572    9.2880 C   0  0  0  0  0  0  0  0  0  0  0  0
   40.2336  -43.7726   10.3136 C   0  0  0  0  0  0  0  0  0  0  0  0
   40.2063  -45.1450   10.2725 C   0  0  0  0  0  0  0  0  0  0  0  0
   39.6980  -45.7758    9.1683 C   0  0  0  0  0  0  0  0  0  0  0  0
   39.2328  -45.0027    8.1401 C   0  0  0  0  0  0  0  0  0  0  0  0
   39.2650  -43.6025    8.1922 C   0  0  0  0  0  0  0  0  0  0  0  0
   38.6596  -45.5847    6.8932 C   0  0  0  0  0  0  0  0  0  0  0  0
   38.1444  -46.9883    7.1242 C   0  0  0  0  0  0  0  0  0  0  0  0
   39.1155  -47.7942    7.9203 C   0  0  0  0  0  0  0  0  0  0  0  0
   39.4513  -48.9651    7.5831 O   0  0  0  0  0  0  0  0  0  0  0  0
   39.6506  -47.1829    9.0832 N   0  0  0  0  0  0  0  0  0  0  0  0
   39.2665  -36.2123    3.6035 N   0  0  0  0  0  0  0  0  0  0  0  0
   39.4084  -36.6933    2.3594 N   0  0  0  0  0  0  0  0  0  0  0  0
  1  2  1  0  0  0  0
  2  3  1  0  0  0  0
  3  4  2  0  0  0  0
  4  5  1  0  0  0  0
  4 23  1  0  0  0  0
  5  6  1  0  0  0  0
  6  7  1  0  0  0  0
  7  8  1  0  0  0  0
  8  9  1  0  0  0  0
  9 10  2  0  0  0  0
  9 11  1  0  0  0  0
 11 12  1  0  0  0  0
 12 13  2  0  0  0  0
 13 14  1  0  0  0  0
 14 15  2  0  0  0  0
 15 16  1  0  0  0  0
 16 17  2  0  0  0  0
 16 18  1  0  0  0  0
 17 12  1  0  0  0  0
 18 19  1  0  0  0  0
 19 20  1  0  0  0  0
 20 21  2  0  0  0  0
 20 22  1  0  0  0  0
 22 15  1  0  0  0  0
 23 24  1  0  0  0  0
 24  2  2  0  0  0  0
M  END
>  <CHROM.1>
-42.50481304,151.75189313,162.98652745,53.62481930,140.16698454,39.76700895
-41.76842617,6.92021802,1.18438944,-1.41699180,-0.84535784

>  <Name>
design_4

>  <RI>
0

>  <Rbt.Current_Directory>
/home/ziqiaoxu/icml18-jtnn/VAEdesign

>  <Rbt.Executable>
rbdock ($Id: //depot/dev/client3/rdock/2013.1/src/exe/rbdock.cxx#4 $)

>  <Rbt.Library>
libRbt.so (2013.1, Build901 2013/11/27)

>  <Rbt.Parameter_File>
/export/apps/rDock/src/rDock_2013.1_src//data/scripts/dock.prm

>  <Rbt.Receptor>
/home/ziqiaoxu/icml18-jtnn/VAEdesign/targets/RdRp-SARS-CoV-2/pocket_docking.prm

>  <SCORE>
-23.2811

>  <SCORE.INTER>
-26.9012

>  <SCORE.INTER.CONST>
1

>  <SCORE.INTER.POLAR>
-3.54596

>  <SCORE.INTER.REPUL>
0

>  <SCORE.INTER.ROT>
5

>  <SCORE.INTER.VDW>
-25.2449

>  <SCORE.INTER.norm>
-1.12088

>  <SCORE.INTRA>
3.62008

>  <SCORE.INTRA.DIHEDRAL>
6.92142

>  <SCORE.INTRA.DIHEDRAL.0>
5.32576

>  <SCORE.INTRA.POLAR>
0

>  <SCORE.INTRA.POLAR.0>
0

>  <SCORE.INTRA.REPUL>
0

>  <SCORE.INTRA.REPUL.0>
0

>  <SCORE.INTRA.VDW>
0.15937

>  <SCORE.INTRA.VDW.0>
-0.36071

>  <SCORE.INTRA.norm>
0.150837

>  <SCORE.RESTR>
0

>  <SCORE.RESTR.CAVITY>
0

>  <SCORE.RESTR.norm>
0

>  <SCORE.SYSTEM>
0

>  <SCORE.SYSTEM.CONST>
0

>  <SCORE.SYSTEM.DIHEDRAL>
0

>  <SCORE.SYSTEM.norm>
0

>  <SCORE.heavy>
24

>  <SCORE.norm>
-0.970045

$$$$
design_15
 OpenBabel05252019093D

 25 28  0  0  0  0  0  0  0  0999 V2000
   40.0568  -46.5223   10.6009 N   0  0  0  0  0  0  0  0  0  0  0  0
   40.7795  -45.7120    9.7076 N   0  0  0  0  0  0  0  0  0  0  0  0
   41.5383  -44.6192   10.0089 C   0  0  0  0  0  0  0  0  0  0  0  0
   41.7304  -44.0359   11.6688 S   0  0  0  0  0  0  0  0  0  0  0  0
   43.4815  -44.0610   12.0948 C   0  0  0  0  0  0  0  0  0  0  0  0
   44.3195  -43.7300   10.9175 C   0  0  0  0  0  0  0  0  0  0  0  0
   44.3969  -44.4245    9.7558 N   0  0  0  0  0  0  0  0  0  0  0  0
   45.2657  -43.8124    8.9254 C   0  0  0  0  0  0  0  0  0  0  0  0
   45.6582  -44.2113    7.5762 C   0  0  0  0  0  0  0  0  0  0  0  0
   46.7576  -43.6527    6.9427 C   0  0  0  0  0  0  0  0  0  0  0  0
   47.1400  -44.0184    5.6731 C   0  0  0  0  0  0  0  0  0  0  0  0
   46.4072  -44.9739    5.0031 C   0  0  0  0  0  0  0  0  0  0  0  0
   45.3099  -45.5446    5.6109 C   0  0  0  0  0  0  0  0  0  0  0  0
   44.9434  -45.1594    6.8928 C   0  0  0  0  0  0  0  0  0  0  0  0
   45.7082  -42.7422    9.6039 N   0  0  0  0  0  0  0  0  0  0  0  0
   45.1292  -42.7128   10.7923 O   0  0  0  0  0  0  0  0  0  0  0  0
   42.0220  -44.1864    8.8416 N   0  0  0  0  0  0  0  0  0  0  0  0
   41.5793  -44.9764    7.8794 N   0  0  0  0  0  0  0  0  0  0  0  0
   40.7982  -45.9429    8.3857 C   0  0  0  0  0  0  0  0  0  0  0  0
   40.1287  -47.0007    7.6345 C   0  0  0  0  0  0  0  0  0  0  0  0
   39.2512  -47.8191    8.2848 C   0  0  0  0  0  0  0  0  0  0  0  0
   38.6207  -48.8160    7.5765 C   0  0  0  0  0  0  0  0  0  0  0  0
   38.8974  -48.9591    6.2174 C   0  0  0  0  0  0  0  0  0  0  0  0
   39.7897  -48.1015    5.6290 C   0  0  0  0  0  0  0  0  0  0  0  0
   40.3853  -47.1473    6.3345 N   0  0  0  0  0  0  0  0  0  0  0  0
  1  2  1  0  0  0  0
  2  3  1  0  0  0  0
  3  4  1  0  0  0  0
  3 17  2  0  0  0  0
  4  5  1  0  0  0  0
  5  6  1  0  0  0  0
  6  7  2  0  0  0  0
  7  8  1  0  0  0  0
  8  9  1  0  0  0  0
  8 15  2  0  0  0  0
  9 10  2  0  0  0  0
 10 11  1  0  0  0  0
 11 12  2  0  0  0  0
 12 13  1  0  0  0  0
 13 14  2  0  0  0  0
 14  9  1  0  0  0  0
 15 16  1  0  0  0  0
 16  6  1  0  0  0  0
 17 18  1  0  0  0  0
 18 19  2  0  0  0  0
 19 20  1  0  0  0  0
 19  2  1  0  0  0  0
 20 21  2  0  0  0  0
 21 22  1  0  0  0  0
 22 23  2  0  0  0  0
 23 24  1  0  0  0  0
 24 25  2  0  0  0  0
 25 20  1  0  0  0  0
M  END
>  <CHROM.1>
71.88336078,120.75598320,34.82265436,-61.71857127,-166.46889802,7.09444217
42.73434165,-45.23214453,8.57137941,2.81938412,-0.47775455,-2.01729063

>  <Name>
design_15

>  <RI>
0

>  <Rbt.Current_Directory>
/home/ziqiaoxu/icml18-jtnn/VAEdesign

>  <Rbt.Executable>
rbdock ($Id: //depot/dev/client3/rdock/2013.1/src/exe/rbdock.cxx#4 $)

>  <Rbt.Library>
libRbt.so (2013.1, Build901 2013/11/27)

>  <Rbt.Parameter_File>
/export/apps/rDock/src/rDock_2013.1_src//data/scripts/dock.prm

>  <Rbt.Receptor>
/home/ziqiaoxu/icml18-jtnn/VAEdesign/targets/RdRp-SARS-CoV-2/pocket_docking.prm

>  <SCORE>
-21.2842

>  <SCORE.INTER>
-21.5933

>  <SCORE.INTER.CONST>
1

>  <SCORE.INTER.POLAR>
-2.34562

>  <SCORE.INTER.REPUL>
0.0447257

>  <SCORE.INTER.ROT>
6

>  <SCORE.INTER.VDW>
-25.2419

>  <SCORE.INTER.norm>
-0.863733

>  <SCORE.INTRA>
0.309134

>  <SCORE.INTRA.DIHEDRAL>
0.667287

>  <SCORE.INTRA.DIHEDRAL.0>
6.20868

>  <SCORE.INTRA.POLAR>
0

>  <SCORE.INTRA.POLAR.0>
0

>  <SCORE.INTRA.REPUL>
0

>  <SCORE.INTRA.REPUL.0>
0

>  <SCORE.INTRA.VDW>
-0.0245101

>  <SCORE.INTRA.VDW.0>
-2.78833

>  <SCORE.INTRA.norm>
0.0123653

>  <SCORE.RESTR>
0

>  <SCORE.RESTR.CAVITY>
0

>  <SCORE.RESTR.norm>
0

>  <SCORE.SYSTEM>
0

>  <SCORE.SYSTEM.CONST>
0

>  <SCORE.SYSTEM.DIHEDRAL>
0

>  <SCORE.SYSTEM.norm>
0

>  <SCORE.heavy>
25

>  <SCORE.norm>
-0.851368

$$$$
design_13
 OpenBabel05252019093D

 26 29  0  0  0  0  0  0  0  0999 V2000
   38.4951  -48.8781    6.4836 C   0  0  0  0  0  0  0  0  0  0  0  0
   38.9179  -47.9046    7.5294 C   0  0  0  0  0  0  0  0  0  0  0  0
   38.1798  -47.4313    8.5474 N   0  0  0  0  0  0  0  0  0  0  0  0
   38.9241  -46.5868    9.2413 N   0  0  0  0  0  0  0  0  0  0  0  0
   40.1490  -46.4938    8.6951 C   0  0  0  0  0  0  0  0  0  0  0  0
   41.2734  -45.6705    9.1328 C   0  0  0  0  0  0  0  0  0  0  0  0
   41.1324  -44.9359   10.2894 C   0  0  0  0  0  0  0  0  0  0  0  0
   42.1606  -44.1530   10.7111 C   0  0  0  0  0  0  0  0  0  0  0  0
   43.3495  -44.0767   10.0027 C   0  0  0  0  0  0  0  0  0  0  0  0
   43.4843  -44.8086    8.8555 C   0  0  0  0  0  0  0  0  0  0  0  0
   44.7144  -44.7756    8.0404 C   0  0  0  0  0  0  0  0  0  0  0  0
   44.6264  -45.3183    6.7286 N   0  0  0  0  0  0  0  0  0  0  0  0
   43.9642  -44.8046    5.6155 C   0  0  0  0  0  0  0  0  0  0  0  0
   43.3416  -43.7299    5.6219 O   0  0  0  0  0  0  0  0  0  0  0  0
   43.9832  -45.5576    4.3333 C   0  0  1  0  0  0  0  0  0  0  0  0
   42.5978  -45.8700    3.8298 C   0  0  0  0  0  0  0  0  0  0  0  0
   43.5892  -44.9727    3.0579 C   0  0  2  0  0  0  0  0  0  0  0  0
   44.0633  -45.5253    1.7633 C   0  0  0  0  0  0  0  0  0  0  0  0
   43.2579  -45.7508    0.6770 C   0  0  0  0  0  0  0  0  0  0  0  0
   43.7657  -46.2758   -0.5176 C   0  0  0  0  0  0  0  0  0  0  0  0
   45.0961  -46.5899   -0.6557 C   0  0  0  0  0  0  0  0  0  0  0  0
   45.9126  -46.3674    0.4294 C   0  0  0  0  0  0  0  0  0  0  0  0
   45.4176  -45.8522    1.6034 C   0  0  0  0  0  0  0  0  0  0  0  0
   46.2538  -45.6412    2.6671 F   0  0  0  0  0  0  0  0  0  0  0  0
   42.4264  -45.6238    8.4078 C   0  0  0  0  0  0  0  0  0  0  0  0
   40.1209  -47.3326    7.6194 N   0  0  0  0  0  0  0  0  0  0  0  0
  1  2  1  0  0  0  0
  2  3  2  0  0  0  0
  3  4  1  0  0  0  0
  4  5  1  0  0  0  0
  5  6  1  0  0  0  0
  5 26  2  0  0  0  0
  6  7  2  0  0  0  0
  7  8  1  0  0  0  0
  8  9  2  0  0  0  0
  9 10  1  0  0  0  0
 10 11  1  0  0  0  0
 10 25  2  0  0  0  0
 11 12  1  0  0  0  0
 12 13  1  0  0  0  0
 13 14  2  0  0  0  0
 15 13  1  1  0  0  0
 15 16  1  0  0  0  0
 16 17  1  0  0  0  0
 17 18  1  6  0  0  0
 17 15  1  0  0  0  0
 18 19  2  0  0  0  0
 19 20  1  0  0  0  0
 20 21  2  0  0  0  0
 21 22  1  0  0  0  0
 22 23  2  0  0  0  0
 23 24  1  0  0  0  0
 23 18  1  0  0  0  0
 25  6  1  0  0  0  0
 26  2  1  0  0  0  0
M  END
>  <CHROM.1>
4.02215009,-165.68546418,70.94433911,123.09688381,134.15898580,42.68490574
-45.80985868,5.70446110,2.13957791,0.50508647,1.29650825

>  <Name>
design_13

>  <RI>
0

>  <Rbt.Current_Directory>
/home/ziqiaoxu/icml18-jtnn/VAEdesign

>  <Rbt.Executable>
rbdock ($Id: //depot/dev/client3/rdock/2013.1/src/exe/rbdock.cxx#4 $)

>  <Rbt.Library>
libRbt.so (2013.1, Build901 2013/11/27)

>  <Rbt.Parameter_File>
/export/apps/rDock/src/rDock_2013.1_src//data/scripts/dock.prm

>  <Rbt.Receptor>
/home/ziqiaoxu/icml18-jtnn/VAEdesign/targets/RdRp-SARS-CoV-2/pocket_docking.prm

>  <SCORE>
-21.3477

>  <SCORE.INTER>
-21.3049

>  <SCORE.INTER.CONST>
1

>  <SCORE.INTER.POLAR>
-1.90097

>  <SCORE.INTER.REPUL>
0

>  <SCORE.INTER.ROT>
5

>  <SCORE.INTER.VDW>
-25.2416

>  <SCORE.INTER.norm>
-0.819418

>  <SCORE.INTRA>
-0.0428714

>  <SCORE.INTRA.DIHEDRAL>
-0.0744046

>  <SCORE.INTRA.DIHEDRAL.0>
5.17934

>  <SCORE.INTRA.POLAR>
0

>  <SCORE.INTRA.POLAR.0>
0

>  <SCORE.INTRA.REPUL>
0

>  <SCORE.INTRA.REPUL.0>
0

>  <SCORE.INTRA.VDW>
-0.00566909

>  <SCORE.INTRA.VDW.0>
-1.60102

>  <SCORE.INTRA.norm>
-0.0016489

>  <SCORE.RESTR>
0

>  <SCORE.RESTR.CAVITY>
0

>  <SCORE.RESTR.norm>
0

>  <SCORE.SYSTEM>
0

>  <SCORE.SYSTEM.CONST>
0

>  <SCORE.SYSTEM.DIHEDRAL>
0

>  <SCORE.SYSTEM.norm>
0

>  <SCORE.heavy>
26

>  <SCORE.norm>
-0.821067

$$$$
design_3
 OpenBabel05252019093D

 23 24  0  0  0  0  0  0  0  0999 V2000
   40.9448  -39.1163    1.3338 C   0  0  0  0  0  0  0  0  0  0  0  0
   40.8764  -39.4359    2.7090 O   0  0  0  0  0  0  0  0  0  0  0  0
   40.5412  -38.5440    3.6892 C   0  0  0  0  0  0  0  0  0  0  0  0
   40.1697  -37.2637    3.3358 C   0  0  0  0  0  0  0  0  0  0  0  0
   39.8213  -36.3187    4.2747 C   0  0  0  0  0  0  0  0  0  0  0  0
   39.8303  -36.6198    5.6337 C   0  0  0  0  0  0  0  0  0  0  0  0
   40.1941  -37.8788    6.0141 C   0  0  0  0  0  0  0  0  0  0  0  0
   40.2454  -38.2389    7.3834 N   0  0  0  0  0  0  0  0  0  0  0  0
   40.6039  -39.4816    7.9166 C   0  0  0  0  0  0  0  0  0  0  0  0
   40.9361  -40.5070    7.2616 O   0  0  0  0  0  0  0  0  0  0  0  0
   40.6039  -39.6607    9.4196 C   0  0  0  0  0  0  0  0  0  0  0  0
   40.1018  -40.8342    9.8183 N   0  0  0  0  0  0  0  0  0  0  0  0
   39.5713  -42.0707   10.2406 C   0  0  0  0  0  0  0  0  0  0  0  0
   38.8750  -42.2133   11.2385 O   0  0  0  0  0  0  0  0  0  0  0  0
   39.9008  -43.2401    9.3938 C   0  0  0  0  0  0  0  0  0  0  0  0
   40.0340  -44.5653    9.9999 C   0  0  0  0  0  0  0  0  0  0  0  0
   39.7319  -45.6953    9.1030 C   0  0  0  0  0  0  0  0  0  0  0  0
   38.5262  -46.3710    9.0814 C   0  0  0  0  0  0  0  0  0  0  0  0
   38.2606  -47.4340    8.2567 C   0  0  0  0  0  0  0  0  0  0  0  0
   39.2476  -47.8768    7.3791 C   0  0  0  0  0  0  0  0  0  0  0  0
   40.4608  -47.2340    7.3672 C   0  0  0  0  0  0  0  0  0  0  0  0
   40.6858  -46.1747    8.2094 C   0  0  0  0  0  0  0  0  0  0  0  0
   40.5440  -38.8226    5.0339 C   0  0  0  0  0  0  0  0  0  0  0  0
  1  2  1  0  0  0  0
  2  3  1  0  0  0  0
  3  4  2  0  0  0  0
  4  5  1  0  0  0  0
  5  6  2  0  0  0  0
  6  7  1  0  0  0  0
  7  8  1  0  0  0  0
  7 23  2  0  0  0  0
  8  9  1  0  0  0  0
  9 10  2  0  0  0  0
  9 11  1  0  0  0  0
 11 12  1  0  0  0  0
 12 13  1  0  0  0  0
 13 14  2  0  0  0  0
 13 15  1  0  0  0  0
 15 16  1  0  0  0  0
 16 17  1  0  0  0  0
 17 18  2  0  0  0  0
 18 19  1  0  0  0  0
 19 20  2  0  0  0  0
 20 21  1  0  0  0  0
 21 22  2  0  0  0  0
 22 17  1  0  0  0  0
 23  3  1  0  0  0  0
M  END
>  <CHROM.1>
3.78348799,-179.70694678,138.79390230,-143.79350178,148.66184815,152.50185692
-99.09640072,40.04131951,-41.50037241,7.13935829,-0.48105233,-1.45748095
-2.58487018

>  <Name>
design_3

>  <RI>
0

>  <Rbt.Current_Directory>
/home/ziqiaoxu/icml18-jtnn/VAEdesign

>  <Rbt.Executable>
rbdock ($Id: //depot/dev/client3/rdock/2013.1/src/exe/rbdock.cxx#4 $)

>  <Rbt.Library>
libRbt.so (2013.1, Build901 2013/11/27)

>  <Rbt.Parameter_File>
/export/apps/rDock/src/rDock_2013.1_src//data/scripts/dock.prm

>  <Rbt.Receptor>
/home/ziqiaoxu/icml18-jtnn/VAEdesign/targets/RdRp-SARS-CoV-2/pocket_docking.prm

>  <SCORE>
-14.6156

>  <SCORE.INTER>
-16.946

>  <SCORE.INTER.CONST>
1

>  <SCORE.INTER.POLAR>
-1.20734

>  <SCORE.INTER.REPUL>
0

>  <SCORE.INTER.ROT>
7

>  <SCORE.INTER.VDW>
-25.241

>  <SCORE.INTER.norm>
-0.736781

>  <SCORE.INTRA>
2.29749

>  <SCORE.INTRA.DIHEDRAL>
2.82477

>  <SCORE.INTRA.DIHEDRAL.0>
5.21911

>  <SCORE.INTRA.POLAR>
0

>  <SCORE.INTRA.POLAR.0>
0

>  <SCORE.INTRA.REPUL>
0

>  <SCORE.INTRA.REPUL.0>
0

>  <SCORE.INTRA.VDW>
0.885107

>  <SCORE.INTRA.VDW.0>
0.389202

>  <SCORE.INTRA.norm>
0.0998909

>  <SCORE.RESTR>
0.0329288

>  <SCORE.RESTR.CAVITY>
0.0329288

>  <SCORE.RESTR.norm>
0.00143169

>  <SCORE.SYSTEM>
0

>  <SCORE.SYSTEM.CONST>
0

>  <SCORE.SYSTEM.DIHEDRAL>
0

>  <SCORE.SYSTEM.norm>
0

>  <SCORE.heavy>
23

>  <SCORE.norm>
-0.635459

$$$$
design_7
 OpenBabel05252019093D

 23 25  0  0  0  0  0  0  0  0999 V2000
   42.0170  -45.6084    3.8872 C   0  0  0  0  0  0  0  0  0  0  0  0
   43.1418  -45.3792    4.8300 C   0  0  0  0  0  0  0  0  0  0  0  0
   44.4697  -45.3901    4.3617 C   0  0  0  0  0  0  0  0  0  0  0  0
   45.5211  -45.1649    5.2031 C   0  0  0  0  0  0  0  0  0  0  0  0
   45.2776  -44.9157    6.5599 C   0  0  0  0  0  0  0  0  0  0  0  0
   43.9983  -44.9007    7.0338 C   0  0  0  0  0  0  0  0  0  0  0  0
   43.7689  -44.6433    8.4539 C   0  0  0  0  0  0  0  0  0  0  0  0
   42.6727  -44.7169    9.1727 N   0  0  0  0  0  0  0  0  0  0  0  0
   42.6819  -44.4352   10.4267 C   0  0  0  0  0  0  0  0  0  0  0  0
   41.4463  -44.4888   11.3210 C   0  0  0  0  0  0  0  0  0  0  0  0
   40.2833  -44.7963   10.4491 C   0  0  0  0  0  0  0  0  0  0  0  0
   39.6480  -43.8488    9.9509 O   0  0  0  0  0  0  0  0  0  0  0  0
   39.9127  -46.1246   10.2062 N   0  0  0  0  0  0  0  0  0  0  0  0
   38.8281  -46.5886    9.3939 C   0  0  0  0  0  0  0  0  0  0  0  0
   39.2396  -47.2427    8.1387 C   0  0  0  0  0  0  0  0  0  0  0  0
   38.7430  -48.4625    7.7721 C   0  0  0  0  0  0  0  0  0  0  0  0
   39.1695  -49.0500    6.5678 C   0  0  0  0  0  0  0  0  0  0  0  0
   40.0787  -48.3377    5.8261 C   0  0  0  0  0  0  0  0  0  0  0  0
   40.5708  -47.1275    6.1923 N   0  0  0  0  0  0  0  0  0  0  0  0
   40.1627  -46.5811    7.3287 C   0  0  0  0  0  0  0  0  0  0  0  0
   43.8873  -44.0531   10.9878 C   0  0  0  0  0  0  0  0  0  0  0  0
   44.9275  -44.1320    9.6433 S   0  0  0  0  0  0  0  0  0  0  0  0
   42.9562  -45.1319    6.1661 C   0  0  0  0  0  0  0  0  0  0  0  0
  1  2  1  0  0  0  0
  2  3  2  0  0  0  0
  3  4  1  0  0  0  0
  4  5  2  0  0  0  0
  5  6  1  0  0  0  0
  6  7  1  0  0  0  0
  6 23  2  0  0  0  0
  7  8  2  0  0  0  0
  8  9  1  0  0  0  0
  9 10  1  0  0  0  0
  9 21  2  0  0  0  0
 10 11  1  0  0  0  0
 11 12  2  0  0  0  0
 11 13  1  0  0  0  0
 13 14  1  0  0  0  0
 14 15  1  0  0  0  0
 15 16  2  0  0  0  0
 16 17  1  0  0  0  0
 17 18  2  0  0  0  0
 18 19  1  0  0  0  0
 19 20  2  0  0  0  0
 20 15  1  0  0  0  0
 21 22  1  0  0  0  0
 22  7  1  0  0  0  0
 23  2  1  0  0  0  0
M  END
>  <CHROM.1>
-171.71741853,-4.85525527,-90.69718718,109.62914106,130.06074136,42.01781000
-45.60497734,7.94662088,-0.09200664,-0.46560617,-1.94043426

>  <Name>
design_7

>  <RI>
0

>  <Rbt.Current_Directory>
/home/ziqiaoxu/icml18-jtnn/VAEdesign

>  <Rbt.Executable>
rbdock ($Id: //depot/dev/client3/rdock/2013.1/src/exe/rbdock.cxx#4 $)

>  <Rbt.Library>
libRbt.so (2013.1, Build901 2013/11/27)

>  <Rbt.Parameter_File>
/export/apps/rDock/src/rDock_2013.1_src//data/scripts/dock.prm

>  <Rbt.Receptor>
/home/ziqiaoxu/icml18-jtnn/VAEdesign/targets/RdRp-SARS-CoV-2/pocket_docking.prm

>  <SCORE>
-17.6608

>  <SCORE.INTER>
-18.3434

>  <SCORE.INTER.CONST>
1

>  <SCORE.INTER.POLAR>
-1.03918

>  <SCORE.INTER.REPUL>
0.00602887

>  <SCORE.INTER.ROT>
5

>  <SCORE.INTER.VDW>
-25.2404

>  <SCORE.INTER.norm>
-0.797541

>  <SCORE.INTRA>
0.682654

>  <SCORE.INTRA.DIHEDRAL>
2.31449

>  <SCORE.INTRA.DIHEDRAL.0>
3.87632

>  <SCORE.INTRA.POLAR>
0

>  <SCORE.INTRA.POLAR.0>
0

>  <SCORE.INTRA.REPUL>
0

>  <SCORE.INTRA.REPUL.0>
0

>  <SCORE.INTRA.VDW>
-0.474592

>  <SCORE.INTRA.VDW.0>
-2.55172

>  <SCORE.INTRA.norm>
0.0296806

>  <SCORE.RESTR>
0

>  <SCORE.RESTR.CAVITY>
0

>  <SCORE.RESTR.norm>
0

>  <SCORE.SYSTEM>
0

>  <SCORE.SYSTEM.CONST>
0

>  <SCORE.SYSTEM.DIHEDRAL>
0

>  <SCORE.SYSTEM.norm>
0

>  <SCORE.heavy>
23

>  <SCORE.norm>
-0.76786

$$$$
design_18
 OpenBabel05252019093D

 25 27  0  0  0  0  0  0  0  0999 V2000
   39.8644  -46.5287   10.1182 N   0  0  0  0  0  0  0  0  0  0  0  0
   40.3187  -46.6353    8.7802 C   0  0  0  0  0  0  0  0  0  0  0  0
   41.5092  -46.3581    8.5119 O   0  0  0  0  0  0  0  0  0  0  0  0
   39.3977  -47.0651    7.7353 C   0  0  0  0  0  0  0  0  0  0  0  0
   39.5370  -48.2693    7.0778 C   0  0  0  0  0  0  0  0  0  0  0  0
   38.6691  -48.6815    6.0886 C   0  0  0  0  0  0  0  0  0  0  0  0
   37.6106  -47.8796    5.7207 C   0  0  0  0  0  0  0  0  0  0  0  0
   37.4522  -46.6721    6.3646 C   0  0  0  0  0  0  0  0  0  0  0  0
   36.3156  -45.8008    5.9760 C   0  0  0  0  0  0  0  0  0  0  0  0
   36.7727  -44.5427    5.3166 C   0  0  0  0  0  0  0  0  0  0  0  0
   37.9349  -44.8513    4.4644 N   0  0  0  0  0  0  0  0  0  0  0  0
   39.2400  -44.4678    4.8532 C   0  0  0  0  0  0  0  0  0  0  0  0
   39.4261  -43.8503    5.9523 O   0  0  0  0  0  0  0  0  0  0  0  0
   40.3652  -44.7834    3.9925 C   0  0  0  0  0  0  0  0  0  0  0  0
   41.5978  -45.0468    4.5184 C   0  0  0  0  0  0  0  0  0  0  0  0
   42.6184  -45.3286    3.6888 N   0  0  0  0  0  0  0  0  0  0  0  0
   42.5111  -45.3710    2.3526 C   0  0  0  0  0  0  0  0  0  0  0  0
   43.5939  -45.6688    1.4951 N   0  0  0  0  0  0  0  0  0  0  0  0
   44.9251  -45.9925    1.9355 C   0  0  0  0  0  0  0  0  0  0  0  0
   45.7889  -46.1007    0.7237 C   0  0  0  0  0  0  0  0  0  0  0  0
   44.9524  -45.6522   -0.4424 C   0  0  0  0  0  0  0  0  0  0  0  0
   43.5328  -45.6943    0.0588 C   0  0  0  0  0  0  0  0  0  0  0  0
   41.2659  -45.1031    1.8636 N   0  0  0  0  0  0  0  0  0  0  0  0
   40.2105  -44.8164    2.6253 C   0  0  0  0  0  0  0  0  0  0  0  0
   38.3309  -46.2787    7.3506 C   0  0  0  0  0  0  0  0  0  0  0  0
  1  2  1  0  0  0  0
  2  3  2  0  0  0  0
  2  4  1  0  0  0  0
  4  5  2  0  0  0  0
  5  6  1  0  0  0  0
  6  7  2  0  0  0  0
  7  8  1  0  0  0  0
  8  9  1  0  0  0  0
  8 25  2  0  0  0  0
  9 10  1  0  0  0  0
 10 11  1  0  0  0  0
 11 12  1  0  0  0  0
 12 13  2  0  0  0  0
 12 14  1  0  0  0  0
 14 15  2  0  0  0  0
 15 16  1  0  0  0  0
 16 17  2  0  0  0  0
 17 18  1  0  0  0  0
 17 23  1  0  0  0  0
 18 19  1  0  0  0  0
 19 20  1  0  0  0  0
 20 21  1  0  0  0  0
 21 22  1  0  0  0  0
 22 18  1  0  0  0  0
 23 24  2  0  0  0  0
 24 14  1  0  0  0  0
 25  4  1  0  0  0  0
M  END
>  <CHROM.1>
-112.65866989,-112.92477545,37.52108784,-106.09532143,-147.97326000,1.56170490
40.58109689,-45.87625185,4.69551063,-2.29936047,0.20017624,-1.26097062

>  <Name>
design_18

>  <RI>
0

>  <Rbt.Current_Directory>
/home/ziqiaoxu/icml18-jtnn/VAEdesign

>  <Rbt.Executable>
rbdock ($Id: //depot/dev/client3/rdock/2013.1/src/exe/rbdock.cxx#4 $)

>  <Rbt.Library>
libRbt.so (2013.1, Build901 2013/11/27)

>  <Rbt.Parameter_File>
/export/apps/rDock/src/rDock_2013.1_src//data/scripts/dock.prm

>  <Rbt.Receptor>
/home/ziqiaoxu/icml18-jtnn/VAEdesign/targets/RdRp-SARS-CoV-2/pocket_docking.prm

>  <SCORE>
-14.979

>  <SCORE.INTER>
-20.0729

>  <SCORE.INTER.CONST>
1

>  <SCORE.INTER.POLAR>
-1.85304

>  <SCORE.INTER.REPUL>
0.0133856

>  <SCORE.INTER.ROT>
6

>  <SCORE.INTER.VDW>
-25.2394

>  <SCORE.INTER.norm>
-0.802914

>  <SCORE.INTRA>
5.09383

>  <SCORE.INTRA.DIHEDRAL>
14.9504

>  <SCORE.INTRA.DIHEDRAL.0>
3.19932

>  <SCORE.INTRA.POLAR>
0

>  <SCORE.INTRA.POLAR.0>
0

>  <SCORE.INTRA.REPUL>
0

>  <SCORE.INTRA.REPUL.0>
0

>  <SCORE.INTRA.VDW>
-2.38138

>  <SCORE.INTRA.VDW.0>
-0.519814

>  <SCORE.INTRA.norm>
0.203753

>  <SCORE.RESTR>
0

>  <SCORE.RESTR.CAVITY>
0

>  <SCORE.RESTR.norm>
0

>  <SCORE.SYSTEM>
0

>  <SCORE.SYSTEM.CONST>
0

>  <SCORE.SYSTEM.DIHEDRAL>
0

>  <SCORE.SYSTEM.norm>
0

>  <SCORE.heavy>
25

>  <SCORE.norm>
-0.599161

$$$$
design_9
 OpenBabel05252019093D

 25 27  0  0  0  0  0  0  0  0999 V2000
   40.2798  -45.5931    9.9076 C   0  0  0  0  0  0  0  0  0  0  0  0
   40.1178  -46.2647    8.6055 C   0  0  0  0  0  0  0  0  0  0  0  0
   39.5190  -47.4977    8.4701 C   0  0  0  0  0  0  0  0  0  0  0  0
   39.5480  -47.7940    7.1088 C   0  0  0  0  0  0  0  0  0  0  0  0
   38.9931  -49.0300    6.5257 C   0  0  0  0  0  0  0  0  0  0  0  0
   40.1343  -46.7828    6.4878 N   0  0  0  0  0  0  0  0  0  0  0  0
   40.3540  -46.7271    5.0171 C   0  0  0  0  0  0  0  0  0  0  0  0
   39.3511  -45.7661    4.5145 C   0  0  0  0  0  0  0  0  0  0  0  0
   39.1717  -45.4950    3.0873 C   0  0  0  0  0  0  0  0  0  0  0  0
   40.1625  -44.7255    2.4248 N   0  0  0  0  0  0  0  0  0  0  0  0
   41.5568  -44.7594    2.4588 C   0  0  0  0  0  0  0  0  0  0  0  0
   42.1853  -45.5886    3.1274 O   0  0  0  0  0  0  0  0  0  0  0  0
   42.2612  -43.7458    1.6377 C   0  0  0  0  0  0  0  0  0  0  0  0
   41.5995  -42.5430    1.3647 C   0  0  0  0  0  0  0  0  0  0  0  0
   42.3024  -41.5553    0.7075 C   0  0  0  0  0  0  0  0  0  0  0  0
   43.6146  -41.7199    0.3199 C   0  0  0  0  0  0  0  0  0  0  0  0
   44.2261  -42.9205    0.6065 C   0  0  0  0  0  0  0  0  0  0  0  0
   43.5438  -43.9576    1.2749 C   0  0  0  0  0  0  0  0  0  0  0  0
   44.1904  -45.1819    1.4222 N   0  0  0  0  0  0  0  0  0  0  0  0
   43.7520  -46.2342    0.4582 C   0  0  0  0  0  0  0  0  0  0  0  0
   44.8495  -46.2876   -0.6149 C   0  0  0  0  0  0  0  0  0  0  0  0
   46.1687  -46.2767    0.0854 C   0  0  0  0  0  0  0  0  0  0  0  0
   46.0939  -46.6184    1.5616 C   0  0  0  0  0  0  0  0  0  0  0  0
   45.2321  -45.5966    2.2993 C   0  0  0  0  0  0  0  0  0  0  0  0
   40.4817  -45.8595    7.3654 N   0  0  0  0  0  0  0  0  0  0  0  0
  1  2  1  0  0  0  0
  2  3  1  0  0  0  0
  3  4  2  0  0  0  0
  4  5  1  0  0  0  0
  4  6  1  0  0  0  0
  6  7  1  0  0  0  0
  6 25  1  0  0  0  0
  7  8  1  0  0  0  0
  8  9  1  0  0  0  0
  9 10  1  0  0  0  0
 10 11  1  0  0  0  0
 11 12  2  0  0  0  0
 11 13  1  0  0  0  0
 13 14  2  0  0  0  0
 14 15  1  0  0  0  0
 15 16  2  0  0  0  0
 16 17  1  0  0  0  0
 17 18  2  0  0  0  0
 18 19  1  0  0  0  0
 18 13  1  0  0  0  0
 19 20  1  0  0  0  0
 20 21  1  0  0  0  0
 21 22  1  0  0  0  0
 22 23  1  0  0  0  0
 23 24  1  0  0  0  0
 24 19  1  0  0  0  0
 25  2  2  0  0  0  0
M  END
>  <CHROM.1>
105.24494014,-175.63525553,-73.30661846,44.24770266,26.43322047,72.87483268
41.98167727,-45.42313377,3.46437303,2.29694766,-0.66183215,2.41048126

>  <Name>
design_9

>  <RI>
0

>  <Rbt.Current_Directory>
/home/ziqiaoxu/icml18-jtnn/VAEdesign

>  <Rbt.Executable>
rbdock ($Id: //depot/dev/client3/rdock/2013.1/src/exe/rbdock.cxx#4 $)

>  <Rbt.Library>
libRbt.so (2013.1, Build901 2013/11/27)

>  <Rbt.Parameter_File>
/export/apps/rDock/src/rDock_2013.1_src//data/scripts/dock.prm

>  <Rbt.Receptor>
/home/ziqiaoxu/icml18-jtnn/VAEdesign/targets/RdRp-SARS-CoV-2/pocket_docking.prm

>  <SCORE>
-17.0672

>  <SCORE.INTER>
-17.0079

>  <SCORE.INTER.CONST>
1

>  <SCORE.INTER.POLAR>
-0.932358

>  <SCORE.INTER.REPUL>
0

>  <SCORE.INTER.ROT>
6

>  <SCORE.INTER.VDW>
-25.2379

>  <SCORE.INTER.norm>
-0.680317

>  <SCORE.INTRA>
-0.0593125

>  <SCORE.INTRA.DIHEDRAL>
-4.86005

>  <SCORE.INTRA.DIHEDRAL.0>
23.0249

>  <SCORE.INTRA.POLAR>
0

>  <SCORE.INTRA.POLAR.0>
0

>  <SCORE.INTRA.REPUL>
0

>  <SCORE.INTRA.REPUL.0>
0

>  <SCORE.INTRA.VDW>
2.37071

>  <SCORE.INTRA.VDW.0>
-4.0934

>  <SCORE.INTRA.norm>
-0.0023725

>  <SCORE.RESTR>
0

>  <SCORE.RESTR.CAVITY>
0

>  <SCORE.RESTR.norm>
0

>  <SCORE.SYSTEM>
0

>  <SCORE.SYSTEM.CONST>
0

>  <SCORE.SYSTEM.DIHEDRAL>
0

>  <SCORE.SYSTEM.norm>
0

>  <SCORE.heavy>
25

>  <SCORE.norm>
-0.68269

$$$$
design_1
 OpenBabel05252019093D

 25 27  0  0  0  0  0  0  0  0999 V2000
   40.7150  -37.8819    1.6453 C   0  0  0  0  0  0  0  0  0  0  0  0
   40.5040  -38.6471    2.8782 N   0  0  0  0  0  0  0  0  0  0  0  0
   40.4873  -38.0091    4.1329 C   0  0  0  0  0  0  0  0  0  0  0  0
   40.6553  -36.7678    4.1982 O   0  0  0  0  0  0  0  0  0  0  0  0
   40.2789  -38.7586    5.3604 C   0  0  0  0  0  0  0  0  0  0  0  0
   40.2709  -38.0872    6.5728 C   0  0  0  0  0  0  0  0  0  0  0  0
   40.0774  -38.7477    7.7723 C   0  0  0  0  0  0  0  0  0  0  0  0
   39.8882  -40.0942    7.7877 C   0  0  0  0  0  0  0  0  0  0  0  0
   39.7152  -40.8611    8.9257 N   0  0  0  0  0  0  0  0  0  0  0  0
   39.7259  -42.2659    8.9705 C   0  0  0  0  0  0  0  0  0  0  0  0
   39.8904  -42.9419    7.9427 O   0  0  0  0  0  0  0  0  0  0  0  0
   39.5388  -42.9792   10.2605 C   0  0  0  0  0  0  0  0  0  0  0  0
   40.6341  -43.9121   10.5650 C   0  0  0  0  0  0  0  0  0  0  0  0
   41.1057  -44.7505    9.4853 N   0  0  0  0  0  0  0  0  0  0  0  0
   42.2642  -44.7405    8.8660 N   0  0  0  0  0  0  0  0  0  0  0  0
   42.3712  -45.6774    7.9327 C   0  0  0  0  0  0  0  0  0  0  0  0
   41.1693  -46.3830    7.9257 C   0  0  0  0  0  0  0  0  0  0  0  0
   40.6896  -47.4503    7.1890 C   0  0  0  0  0  0  0  0  0  0  0  0
   39.4228  -47.9510    7.4088 C   0  0  0  0  0  0  0  0  0  0  0  0
   38.8818  -49.1025    6.6266 C   0  0  0  0  0  0  0  0  0  0  0  0
   38.6687  -47.3395    8.3892 C   0  0  0  0  0  0  0  0  0  0  0  0
   39.1514  -46.2690    9.1273 C   0  0  0  0  0  0  0  0  0  0  0  0
   40.4160  -45.7757    8.9019 C   0  0  0  0  0  0  0  0  0  0  0  0
   39.8935  -40.7899    6.5623 C   0  0  0  0  0  0  0  0  0  0  0  0
   40.0855  -40.1299    5.3767 C   0  0  0  0  0  0  0  0  0  0  0  0
  1  2  1  0  0  0  0
  2  3  1  0  0  0  0
  3  4  2  0  0  0  0
  3  5  1  0  0  0  0
  5  6  2  0  0  0  0
  6  7  1  0  0  0  0
  7  8  2  0  0  0  0
  8  9  1  0  0  0  0
  8 24  1  0  0  0  0
  9 10  1  0  0  0  0
 10 11  2  0  0  0  0
 10 12  1  0  0  0  0
 12 13  1  0  0  0  0
 13 14  1  0  0  0  0
 14 15  1  0  0  0  0
 15 16  2  0  0  0  0
 16 17  1  0  0  0  0
 17 18  2  0  0  0  0
 18 19  1  0  0  0  0
 19 20  1  0  0  0  0
 19 21  2  0  0  0  0
 21 22  1  0  0  0  0
 22 23  2  0  0  0  0
 23 14  1  0  0  0  0
 23 17  1  0  0  0  0
 24 25  2  0  0  0  0
 25  5  1  0  0  0  0
M  END
>  <CHROM.1>
179.98044779,-169.57420257,-124.40111924,-44.02947097,112.64938266,40.26073245
-42.59515469,7.19196621,0.16823462,-1.54043379,-1.83057699

>  <Name>
design_1

>  <RI>
0

>  <Rbt.Current_Directory>
/home/ziqiaoxu/icml18-jtnn/VAEdesign

>  <Rbt.Executable>
rbdock ($Id: //depot/dev/client3/rdock/2013.1/src/exe/rbdock.cxx#4 $)

>  <Rbt.Library>
libRbt.so (2013.1, Build901 2013/11/27)

>  <Rbt.Parameter_File>
/export/apps/rDock/src/rDock_2013.1_src//data/scripts/dock.prm

>  <Rbt.Receptor>
/home/ziqiaoxu/icml18-jtnn/VAEdesign/targets/RdRp-SARS-CoV-2/pocket_docking.prm

>  <SCORE>
-21.0677

>  <SCORE.INTER>
-21.9356

>  <SCORE.INTER.CONST>
1

>  <SCORE.INTER.POLAR>
-2.09969

>  <SCORE.INTER.REPUL>
0.00781617

>  <SCORE.INTER.ROT>
5

>  <SCORE.INTER.VDW>
-25.2357

>  <SCORE.INTER.norm>
-0.877423

>  <SCORE.INTRA>
0.867828

>  <SCORE.INTRA.DIHEDRAL>
0.759608

>  <SCORE.INTRA.DIHEDRAL.0>
5.58841

>  <SCORE.INTRA.POLAR>
0

>  <SCORE.INTRA.POLAR.0>
0

>  <SCORE.INTRA.REPUL>
0

>  <SCORE.INTRA.REPUL.0>
0

>  <SCORE.INTRA.VDW>
0.488024

>  <SCORE.INTRA.VDW.0>
-0.0749341

>  <SCORE.INTRA.norm>
0.0347131

>  <SCORE.RESTR>
0

>  <SCORE.RESTR.CAVITY>
0

>  <SCORE.RESTR.norm>
0

>  <SCORE.SYSTEM>
0

>  <SCORE.SYSTEM.CONST>
0

>  <SCORE.SYSTEM.DIHEDRAL>
0

>  <SCORE.SYSTEM.norm>
0

>  <SCORE.heavy>
25

>  <SCORE.norm>
-0.84271

$$$$
design_6
 OpenBabel05252019093D

 22 23  0  0  0  0  0  0  0  0999 V2000
   45.6485  -44.3651    6.8873 C   0  0  0  0  0  0  0  0  0  0  0  0
   44.5734  -44.4153    7.9135 C   0  0  0  0  0  0  0  0  0  0  0  0
   44.7453  -43.9198    9.1829 C   0  0  0  0  0  0  0  0  0  0  0  0
   43.7319  -43.9691   10.1445 C   0  0  0  0  0  0  0  0  0  0  0  0
   42.5148  -44.5287    9.8284 C   0  0  0  0  0  0  0  0  0  0  0  0
   41.1866  -44.6268   10.9958 S   0  0  0  0  0  0  0  0  0  0  0  0
   40.4368  -43.3084   10.9288 O   0  0  0  0  0  0  0  0  0  0  0  0
   41.6697  -44.8393   12.3781 O   0  0  0  0  0  0  0  0  0  0  0  0
   40.1396  -45.8669   10.4507 N   0  0  0  0  0  0  0  0  0  0  0  0
   39.3478  -45.6825    9.2974 C   0  0  0  0  0  0  0  0  0  0  0  0
   38.4255  -46.6626    8.9399 C   0  0  0  0  0  0  0  0  0  0  0  0
   37.6574  -46.4845    7.8324 C   0  0  0  0  0  0  0  0  0  0  0  0
   37.7640  -45.3579    7.0485 C   0  0  0  0  0  0  0  0  0  0  0  0
   36.7717  -45.1181    5.6103 S   0  0  0  0  0  0  0  0  0  0  0  0
   36.1056  -43.4626    5.6957 C   0  0  0  0  0  0  0  0  0  0  0  0
   37.5884  -45.2817    4.3813 O   0  0  0  0  0  0  0  0  0  0  0  0
   35.6667  -46.1335    5.6741 O   0  0  0  0  0  0  0  0  0  0  0  0
   38.6762  -44.4185    7.4263 C   0  0  0  0  0  0  0  0  0  0  0  0
   39.4908  -44.5437    8.5487 C   0  0  0  0  0  0  0  0  0  0  0  0
   42.3483  -45.0242    8.5529 C   0  0  0  0  0  0  0  0  0  0  0  0
   43.3516  -44.9755    7.6006 C   0  0  0  0  0  0  0  0  0  0  0  0
   43.1009  -45.6186    5.9832 Cl  0  0  0  0  0  0  0  0  0  0  0  0
  1  2  1  0  0  0  0
  2  3  2  0  0  0  0
  3  4  1  0  0  0  0
  4  5  2  0  0  0  0
  5  6  1  0  0  0  0
  5 20  1  0  0  0  0
  6  7  2  0  0  0  0
  6  8  2  0  0  0  0
  6  9  1  0  0  0  0
  9 10  1  0  0  0  0
 10 11  2  0  0  0  0
 11 12  1  0  0  0  0
 12 13  2  0  0  0  0
 13 14  1  0  0  0  0
 13 18  1  0  0  0  0
 14 15  1  0  0  0  0
 14 16  2  0  0  0  0
 14 17  2  0  0  0  0
 18 19  2  0  0  0  0
 19 10  1  0  0  0  0
 20 21  2  0  0  0  0
 21 22  1  0  0  0  0
 21  2  1  0  0  0  0
M  END
>  <CHROM.1>
85.54039500,-70.72364100,-174.74821488,132.31744785,40.43194652,-44.96622946
8.10052317,-0.46508277,-0.07369870,-1.64142699

>  <Name>
design_6

>  <RI>
0

>  <Rbt.Current_Directory>
/home/ziqiaoxu/icml18-jtnn/VAEdesign

>  <Rbt.Executable>
rbdock ($Id: //depot/dev/client3/rdock/2013.1/src/exe/rbdock.cxx#4 $)

>  <Rbt.Library>
libRbt.so (2013.1, Build901 2013/11/27)

>  <Rbt.Parameter_File>
/export/apps/rDock/src/rDock_2013.1_src//data/scripts/dock.prm

>  <Rbt.Receptor>
/home/ziqiaoxu/icml18-jtnn/VAEdesign/targets/RdRp-SARS-CoV-2/pocket_docking.prm

>  <SCORE>
-21.2683

>  <SCORE.INTER>
-19.3624

>  <SCORE.INTER.CONST>
1

>  <SCORE.INTER.POLAR>
-1.0583

>  <SCORE.INTER.REPUL>
0.0141905

>  <SCORE.INTER.ROT>
4

>  <SCORE.INTER.VDW>
-25.2351

>  <SCORE.INTER.norm>
-0.880109

>  <SCORE.INTRA>
-1.9059

>  <SCORE.INTRA.DIHEDRAL>
-6.83919

>  <SCORE.INTRA.DIHEDRAL.0>
10.543

>  <SCORE.INTRA.POLAR>
0

>  <SCORE.INTRA.POLAR.0>
0

>  <SCORE.INTRA.REPUL>
0

>  <SCORE.INTRA.REPUL.0>
0

>  <SCORE.INTRA.VDW>
1.51369

>  <SCORE.INTRA.VDW.0>
-2.9434

>  <SCORE.INTRA.norm>
-0.086632

>  <SCORE.RESTR>
0

>  <SCORE.RESTR.CAVITY>
0

>  <SCORE.RESTR.norm>
0

>  <SCORE.SYSTEM>
0

>  <SCORE.SYSTEM.CONST>
0

>  <SCORE.SYSTEM.DIHEDRAL>
0

>  <SCORE.SYSTEM.norm>
0

>  <SCORE.heavy>
22

>  <SCORE.norm>
-0.966741

$$$$
design_0
 OpenBabel05252019093D

 23 25  0  0  0  0  0  0  0  0999 V2000
   39.2415  -48.7349    6.4591 C   0  0  0  0  0  0  0  0  0  0  0  0
   40.0792  -47.7540    7.2046 C   0  0  0  0  0  0  0  0  0  0  0  0
   39.7774  -47.2617    8.4301 N   0  0  0  0  0  0  0  0  0  0  0  0
   40.7455  -46.4070    8.7989 N   0  0  0  0  0  0  0  0  0  0  0  0
   41.6646  -46.3470    7.8213 C   0  0  0  0  0  0  0  0  0  0  0  0
   42.8991  -45.5304    7.8087 C   0  0  0  0  0  0  0  0  0  0  0  0
   43.1294  -44.5977    8.7959 C   0  0  0  0  0  0  0  0  0  0  0  0
   44.2778  -43.8550    8.7626 C   0  0  0  0  0  0  0  0  0  0  0  0
   45.2007  -44.0259    7.7621 C   0  0  0  0  0  0  0  0  0  0  0  0
   44.9909  -44.9540    6.7631 C   0  0  0  0  0  0  0  0  0  0  0  0
   45.9742  -45.1287    5.7065 C   0  0  0  0  0  0  0  0  0  0  0  0
   47.0372  -44.4688    5.7836 O   0  0  0  0  0  0  0  0  0  0  0  0
   45.7917  -45.9785    4.6352 O   0  0  0  0  0  0  0  0  0  0  0  0
   46.7859  -46.1895    3.6454 C   0  0  0  0  0  0  0  0  0  0  0  0
   46.3010  -47.1548    2.5835 C   0  0  0  0  0  0  0  0  0  0  0  0
   45.3470  -46.4996    1.7114 N   0  0  0  0  0  0  0  0  0  0  0  0
   44.1349  -45.8699    2.1626 C   0  0  0  0  0  0  0  0  0  0  0  0
   43.3100  -45.6871    0.9042 C   0  0  0  0  0  0  0  0  0  0  0  0
   44.3439  -45.5947   -0.2001 C   0  0  0  0  0  0  0  0  0  0  0  0
   45.4770  -46.3901    0.2998 C   0  0  0  0  0  0  0  0  0  0  0  0
   46.3745  -46.8630   -0.4546 O   0  0  0  0  0  0  0  0  0  0  0  0
   43.8266  -45.6888    6.8200 C   0  0  0  0  0  0  0  0  0  0  0  0
   41.2347  -47.1789    6.8584 N   0  0  0  0  0  0  0  0  0  0  0  0
  1  2  1  0  0  0  0
  2  3  2  0  0  0  0
  3  4  1  0  0  0  0
  4  5  1  0  0  0  0
  5  6  1  0  0  0  0
  5 23  2  0  0  0  0
  6  7  2  0  0  0  0
  7  8  1  0  0  0  0
  8  9  2  0  0  0  0
  9 10  1  0  0  0  0
 10 11  1  0  0  0  0
 10 22  2  0  0  0  0
 11 12  2  0  0  0  0
 11 13  1  0  0  0  0
 13 14  1  0  0  0  0
 14 15  1  0  0  0  0
 15 16  1  0  0  0  0
 16 17  1  0  0  0  0
 17 18  1  0  0  0  0
 18 19  1  0  0  0  0
 19 20  1  0  0  0  0
 20 21  2  0  0  0  0
 20 16  1  0  0  0  0
 22  6  1  0  0  0  0
 23  2  1  0  0  0  0
M  END
>  <CHROM.1>
-8.02172145,4.05259644,-176.82119492,-179.17236348,74.60563691,-56.90722341
43.85654602,-46.02898328,5.09416345,2.17785788,0.44368182,1.30397934

>  <Name>
design_0

>  <RI>
0

>  <Rbt.Current_Directory>
/home/ziqiaoxu/icml18-jtnn/VAEdesign

>  <Rbt.Executable>
rbdock ($Id: //depot/dev/client3/rdock/2013.1/src/exe/rbdock.cxx#4 $)

>  <Rbt.Library>
libRbt.so (2013.1, Build901 2013/11/27)

>  <Rbt.Parameter_File>
/export/apps/rDock/src/rDock_2013.1_src//data/scripts/dock.prm

>  <Rbt.Receptor>
/home/ziqiaoxu/icml18-jtnn/VAEdesign/targets/RdRp-SARS-CoV-2/pocket_docking.prm

>  <SCORE>
-12.7712

>  <SCORE.INTER>
-13.835

>  <SCORE.INTER.CONST>
1

>  <SCORE.INTER.POLAR>
0

>  <SCORE.INTER.REPUL>
0

>  <SCORE.INTER.ROT>
6

>  <SCORE.INTER.VDW>
-25.235

>  <SCORE.INTER.norm>
-0.601521

>  <SCORE.INTRA>
1.06378

>  <SCORE.INTRA.DIHEDRAL>
1.15546

>  <SCORE.INTRA.DIHEDRAL.0>
2.40098

>  <SCORE.INTRA.POLAR>
0

>  <SCORE.INTRA.POLAR.0>
0

>  <SCORE.INTRA.REPUL>
0

>  <SCORE.INTRA.REPUL.0>
0

>  <SCORE.INTRA.VDW>
0.486048

>  <SCORE.INTRA.VDW.0>
-0.597408

>  <SCORE.INTRA.norm>
0.0462513

>  <SCORE.RESTR>
0

>  <SCORE.RESTR.CAVITY>
0

>  <SCORE.RESTR.norm>
0

>  <SCORE.SYSTEM>
0

>  <SCORE.SYSTEM.CONST>
0

>  <SCORE.SYSTEM.DIHEDRAL>
0

>  <SCORE.SYSTEM.norm>
0

>  <SCORE.heavy>
23

>  <SCORE.norm>
-0.55527

$$$$
design_16
 OpenBabel05252019093D

 22 24  0  0  0  0  0  0  0  0999 V2000
   46.5034  -43.4325    7.5346 C   0  0  0  0  0  0  0  0  0  0  0  0
   45.1777  -44.0570    7.8134 C   0  0  0  0  0  0  0  0  0  0  0  0
   44.4114  -43.6878    8.8888 C   0  0  0  0  0  0  0  0  0  0  0  0
   43.1708  -44.2917    9.1251 C   0  0  0  0  0  0  0  0  0  0  0  0
   42.7338  -45.2543    8.2695 C   0  0  0  0  0  0  0  0  0  0  0  0
   41.4275  -45.9321    8.4652 C   0  0  0  0  0  0  0  0  0  0  0  0
   40.8952  -46.9105    7.7649 N   0  0  0  0  0  0  0  0  0  0  0  0
   39.7348  -47.3798    8.0831 C   0  0  0  0  0  0  0  0  0  0  0  0
   39.0824  -48.5104    7.3068 C   0  0  0  0  0  0  0  0  0  0  0  0
   39.4108  -48.3937    5.9000 N   0  0  0  0  0  0  0  0  0  0  0  0
   39.8504  -47.1847    5.2934 C   0  0  0  0  0  0  0  0  0  0  0  0
   41.1323  -46.9852    4.8277 C   0  0  0  0  0  0  0  0  0  0  0  0
   41.5398  -45.7889    4.2256 C   0  0  0  0  0  0  0  0  0  0  0  0
   40.6334  -44.7620    4.0863 C   0  0  0  0  0  0  0  0  0  0  0  0
   41.0018  -43.4740    3.4592 C   0  0  0  0  0  0  0  0  0  0  0  0
   39.3450  -44.9430    4.5461 C   0  0  0  0  0  0  0  0  0  0  0  0
   38.9563  -46.1335    5.1404 C   0  0  0  0  0  0  0  0  0  0  0  0
   37.5605  -46.2942    5.6246 C   0  0  0  0  0  0  0  0  0  0  0  0
   39.0964  -46.8202    9.1654 C   0  0  0  0  0  0  0  0  0  0  0  0
   40.2316  -45.6397    9.6542 S   0  0  0  0  0  0  0  0  0  0  0  0
   43.5017  -45.6216    7.1954 C   0  0  0  0  0  0  0  0  0  0  0  0
   44.7227  -45.0292    6.9602 C   0  0  0  0  0  0  0  0  0  0  0  0
  1  2  1  0  0  0  0
  2  3  2  0  0  0  0
  3  4  1  0  0  0  0
  4  5  2  0  0  0  0
  5  6  1  0  0  0  0
  5 21  1  0  0  0  0
  6  7  2  0  0  0  0
  7  8  1  0  0  0  0
  8  9  1  0  0  0  0
  8 19  2  0  0  0  0
  9 10  1  0  0  0  0
 10 11  1  0  0  0  0
 11 12  2  0  0  0  0
 12 13  1  0  0  0  0
 13 14  2  0  0  0  0
 14 15  1  0  0  0  0
 14 16  1  0  0  0  0
 16 17  2  0  0  0  0
 17 18  1  0  0  0  0
 17 11  1  0  0  0  0
 19 20  1  0  0  0  0
 20  6  1  0  0  0  0
 21 22  2  0  0  0  0
 22  2  1  0  0  0  0
M  END
>  <CHROM.1>
-176.91325962,-35.18747106,-20.45736489,110.59490877,41.28667468,-45.74894867
6.93840626,-0.23007910,-0.49858260,-1.37322195

>  <Name>
design_16

>  <RI>
0

>  <Rbt.Current_Directory>
/home/ziqiaoxu/icml18-jtnn/VAEdesign

>  <Rbt.Executable>
rbdock ($Id: //depot/dev/client3/rdock/2013.1/src/exe/rbdock.cxx#4 $)

>  <Rbt.Library>
libRbt.so (2013.1, Build901 2013/11/27)

>  <Rbt.Parameter_File>
/export/apps/rDock/src/rDock_2013.1_src//data/scripts/dock.prm

>  <Rbt.Receptor>
/home/ziqiaoxu/icml18-jtnn/VAEdesign/targets/RdRp-SARS-CoV-2/pocket_docking.prm

>  <SCORE>
-17.6505

>  <SCORE.INTER>
-20.2934

>  <SCORE.INTER.CONST>
1

>  <SCORE.INTER.POLAR>
-1.31135

>  <SCORE.INTER.REPUL>
0

>  <SCORE.INTER.ROT>
4

>  <SCORE.INTER.VDW>
-25.2348

>  <SCORE.INTER.norm>
-0.922428

>  <SCORE.INTRA>
2.64295

>  <SCORE.INTRA.DIHEDRAL>
11.5428

>  <SCORE.INTRA.DIHEDRAL.0>
3.19396

>  <SCORE.INTRA.POLAR>
0

>  <SCORE.INTRA.POLAR.0>
0

>  <SCORE.INTRA.REPUL>
0

>  <SCORE.INTRA.REPUL.0>
0

>  <SCORE.INTRA.VDW>
-3.12847

>  <SCORE.INTRA.VDW.0>
0.619423

>  <SCORE.INTRA.norm>
0.120134

>  <SCORE.RESTR>
0

>  <SCORE.RESTR.CAVITY>
0

>  <SCORE.RESTR.norm>
0

>  <SCORE.SYSTEM>
0

>  <SCORE.SYSTEM.CONST>
0

>  <SCORE.SYSTEM.DIHEDRAL>
0

>  <SCORE.SYSTEM.norm>
0

>  <SCORE.heavy>
22

>  <SCORE.norm>
-0.802293

$$$$
design_1
 OpenBabel05252019093D

 24 26  0  0  0  0  0  0  0  0999 V2000
   38.8151  -49.4214    6.2414 N   0  0  0  0  0  0  0  0  0  0  0  0
   38.6417  -47.7949    6.8420 S   0  0  0  0  0  0  0  0  0  0  0  0
   38.1832  -47.8369    8.2705 O   0  0  0  0  0  0  0  0  0  0  0  0
   37.6091  -47.0696    6.0262 O   0  0  0  0  0  0  0  0  0  0  0  0
   40.2049  -46.9713    6.7855 C   0  0  0  0  0  0  0  0  0  0  0  0
   40.7982  -46.7010    5.5649 C   0  0  0  0  0  0  0  0  0  0  0  0
   42.0176  -46.0681    5.4642 C   0  0  0  0  0  0  0  0  0  0  0  0
   42.7217  -45.6640    6.6024 C   0  0  0  0  0  0  0  0  0  0  0  0
   44.0299  -45.0015    6.4504 C   0  0  0  0  0  0  0  0  0  0  0  0
   44.9906  -45.6532    5.6303 N   0  0  0  0  0  0  0  0  0  0  0  0
   45.1065  -45.4954    4.2374 C   0  0  0  0  0  0  0  0  0  0  0  0
   44.2759  -44.6693    3.7159 O   0  0  0  0  0  0  0  0  0  0  0  0
   46.0346  -46.1385    3.3436 C   0  0  0  0  0  0  0  0  0  0  0  0
   47.1966  -46.6669    3.8647 C   0  0  0  0  0  0  0  0  0  0  0  0
   48.1262  -47.3441    3.0593 C   0  0  0  0  0  0  0  0  0  0  0  0
   47.8275  -47.4515    1.7455 C   0  0  0  0  0  0  0  0  0  0  0  0
   46.6771  -46.9329    1.2056 C   0  0  0  0  0  0  0  0  0  0  0  0
   46.4250  -47.0477   -0.1111 N   0  0  0  0  0  0  0  0  0  0  0  0
   45.3264  -46.5407   -0.6620 C   0  0  0  0  0  0  0  0  0  0  0  0
   44.3632  -45.8617    0.0557 C   0  0  0  0  0  0  0  0  0  0  0  0
   44.5945  -45.7225    1.4353 C   0  0  0  0  0  0  0  0  0  0  0  0
   45.7470  -46.2607    1.9923 C   0  0  0  0  0  0  0  0  0  0  0  0
   42.1105  -45.9435    7.8100 C   0  0  0  0  0  0  0  0  0  0  0  0
   40.8825  -46.5806    7.9181 C   0  0  0  0  0  0  0  0  0  0  0  0
  1  2  1  0  0  0  0
  2  3  2  0  0  0  0
  2  4  2  0  0  0  0
  2  5  1  0  0  0  0
  5  6  2  0  0  0  0
  6  7  1  0  0  0  0
  7  8  2  0  0  0  0
  8  9  1  0  0  0  0
  8 23  1  0  0  0  0
  9 10  1  0  0  0  0
 10 11  1  0  0  0  0
 11 12  2  0  0  0  0
 11 13  1  0  0  0  0
 13 14  2  0  0  0  0
 14 15  1  0  0  0  0
 15 16  2  0  0  0  0
 16 17  1  0  0  0  0
 17 18  2  0  0  0  0
 18 19  1  0  0  0  0
 19 20  2  0  0  0  0
 20 21  1  0  0  0  0
 21 22  2  0  0  0  0
 22 13  1  0  0  0  0
 22 17  1  0  0  0  0
 23 24  2  0  0  0  0
 24  5  1  0  0  0  0
M  END
>  <CHROM.1>
-69.38036157,66.02995673,-51.27312809,87.22609607,-21.02599758,43.05504545
-46.63050304,4.52038552,2.54889529,0.28074513,1.35819601

>  <Name>
design_1

>  <RI>
0

>  <Rbt.Current_Directory>
/home/ziqiaoxu/icml18-jtnn/VAEdesign

>  <Rbt.Executable>
rbdock ($Id: //depot/dev/client3/rdock/2013.1/src/exe/rbdock.cxx#4 $)

>  <Rbt.Library>
libRbt.so (2013.1, Build901 2013/11/27)

>  <Rbt.Parameter_File>
/export/apps/rDock/src/rDock_2013.1_src//data/scripts/dock.prm

>  <Rbt.Receptor>
/home/ziqiaoxu/icml18-jtnn/VAEdesign/targets/RdRp-SARS-CoV-2/pocket_docking.prm

>  <SCORE>
-25.4831

>  <SCORE.INTER>
-23.4052

>  <SCORE.INTER.CONST>
1

>  <SCORE.INTER.POLAR>
-2.5208

>  <SCORE.INTER.REPUL>
0

>  <SCORE.INTER.ROT>
5

>  <SCORE.INTER.VDW>
-25.2345

>  <SCORE.INTER.norm>
-0.975218

>  <SCORE.INTRA>
-2.0779

>  <SCORE.INTRA.DIHEDRAL>
-8.53521

>  <SCORE.INTRA.DIHEDRAL.0>
13.6052

>  <SCORE.INTRA.POLAR>
0

>  <SCORE.INTRA.POLAR.0>
0

>  <SCORE.INTRA.REPUL>
0

>  <SCORE.INTRA.REPUL.0>
0

>  <SCORE.INTRA.VDW>
2.18971

>  <SCORE.INTRA.VDW.0>
-2.70856

>  <SCORE.INTRA.norm>
-0.0865791

>  <SCORE.RESTR>
0

>  <SCORE.RESTR.CAVITY>
0

>  <SCORE.RESTR.norm>
0

>  <SCORE.SYSTEM>
0

>  <SCORE.SYSTEM.CONST>
0

>  <SCORE.SYSTEM.DIHEDRAL>
0

>  <SCORE.SYSTEM.norm>
0

>  <SCORE.heavy>
24

>  <SCORE.norm>
-1.0618

$$$$
design_5
 OpenBabel05252019093D

 23 24  0  0  0  0  0  0  0  0999 V2000
   39.7693  -36.6177    4.6098 N   0  0  0  0  0  0  0  0  0  0  0  0
   39.5465  -38.0031    4.7816 C   0  0  0  0  0  0  0  0  0  0  0  0
   39.2278  -38.6723    3.7115 O   0  0  0  0  0  0  0  0  0  0  0  0
   39.6391  -38.6818    6.0333 C   0  0  0  0  0  0  0  0  0  0  0  0
   38.9483  -39.9131    6.0985 C   0  0  0  0  0  0  0  0  0  0  0  0
   39.0053  -40.5981    7.2533 C   0  0  0  0  0  0  0  0  0  0  0  0
   39.7287  -40.1665    8.4368 C   0  0  0  0  0  0  0  0  0  0  0  0
   39.7631  -41.0326    9.3939 N   0  0  0  0  0  0  0  0  0  0  0  0
   39.8009  -41.9886   10.4502 C   0  0  0  0  0  0  0  0  0  0  0  0
   39.2443  -41.9047   11.5807 O   0  0  0  0  0  0  0  0  0  0  0  0
   40.5388  -43.1083   10.1586 N   0  0  0  0  0  0  0  0  0  0  0  0
   41.2042  -44.3094   10.1671 C   0  0  0  0  0  0  0  0  0  0  0  0
   40.1376  -45.4328   10.0995 C   0  0  0  0  0  0  0  0  0  0  0  0
   39.3916  -45.3531    8.8330 C   0  0  0  0  0  0  0  0  0  0  0  0
   38.4181  -46.4854    8.6136 C   0  0  0  0  0  0  0  0  0  0  0  0
   38.0577  -46.3438    7.1441 C   0  0  0  0  0  0  0  0  0  0  0  0
   38.8987  -46.6037    6.1654 C   0  0  0  0  0  0  0  0  0  0  0  0
   38.6124  -46.3917    4.8507 C   0  0  0  0  0  0  0  0  0  0  0  0
   37.3420  -45.8729    4.5314 C   0  0  0  0  0  0  0  0  0  0  0  0
   36.4929  -45.6220    5.5701 C   0  0  0  0  0  0  0  0  0  0  0  0
   36.7757  -45.8308    6.8963 C   0  0  0  0  0  0  0  0  0  0  0  0
   40.3885  -38.9426    8.2924 C   0  0  0  0  0  0  0  0  0  0  0  0
   40.3299  -38.2360    7.1066 C   0  0  0  0  0  0  0  0  0  0  0  0
  1  2  1  0  0  0  0
  2  3  2  0  0  0  0
  2  4  1  0  0  0  0
  4  5  2  0  0  0  0
  5  6  1  0  0  0  0
  6  7  2  0  0  0  0
  7  8  1  0  0  0  0
  7 22  1  0  0  0  0
  8  9  1  0  0  0  0
  9 10  2  0  0  0  0
  9 11  1  0  0  0  0
 11 12  1  0  0  0  0
 12 13  1  0  0  0  0
 13 14  1  0  0  0  0
 14 15  1  0  0  0  0
 15 16  1  0  0  0  0
 16 17  2  0  0  0  0
 17 18  1  0  0  0  0
 18 19  2  0  0  0  0
 19 20  1  0  0  0  0
 20 21  2  0  0  0  0
 21 16  1  0  0  0  0
 22 23  2  0  0  0  0
 23  4  1  0  0  0  0
M  END
>  <CHROM.1>
158.79231226,-41.79343129,73.80826421,63.26982200,174.45043114,-166.88211110
69.99642886,39.20782577,-42.39169344,7.45679315,1.15687785,-1.19532067,-0.60204587

>  <Name>
design_5

>  <RI>
0

>  <Rbt.Current_Directory>
/home/ziqiaoxu/icml18-jtnn/VAEdesign

>  <Rbt.Executable>
rbdock ($Id: //depot/dev/client3/rdock/2013.1/src/exe/rbdock.cxx#4 $)

>  <Rbt.Library>
libRbt.so (2013.1, Build901 2013/11/27)

>  <Rbt.Parameter_File>
/export/apps/rDock/src/rDock_2013.1_src//data/scripts/dock.prm

>  <Rbt.Receptor>
/home/ziqiaoxu/icml18-jtnn/VAEdesign/targets/RdRp-SARS-CoV-2/pocket_docking.prm

>  <SCORE>
-20.5135

>  <SCORE.INTER>
-19.4878

>  <SCORE.INTER.CONST>
1

>  <SCORE.INTER.POLAR>
-1.957

>  <SCORE.INTER.REPUL>
0

>  <SCORE.INTER.ROT>
7

>  <SCORE.INTER.VDW>
-25.234

>  <SCORE.INTER.norm>
-0.847298

>  <SCORE.INTRA>
-1.02566

>  <SCORE.INTRA.DIHEDRAL>
-1.45987

>  <SCORE.INTRA.DIHEDRAL.0>
14.334

>  <SCORE.INTRA.POLAR>
0

>  <SCORE.INTRA.POLAR.0>
0

>  <SCORE.INTRA.REPUL>
0

>  <SCORE.INTRA.REPUL.0>
0

>  <SCORE.INTRA.VDW>
-0.29572

>  <SCORE.INTRA.VDW.0>
-0.499417

>  <SCORE.INTRA.norm>
-0.0445938

>  <SCORE.RESTR>
0

>  <SCORE.RESTR.CAVITY>
0

>  <SCORE.RESTR.norm>
0

>  <SCORE.SYSTEM>
0

>  <SCORE.SYSTEM.CONST>
0

>  <SCORE.SYSTEM.DIHEDRAL>
0

>  <SCORE.SYSTEM.norm>
0

>  <SCORE.heavy>
23

>  <SCORE.norm>
-0.891891

$$$$
design_10
 OpenBabel05252019093D

 23 24  0  0  0  0  0  0  0  0999 V2000
   43.8747  -43.7557    9.2171 C   0  0  0  0  0  0  0  0  0  0  0  0
   42.6880  -44.6422    9.1180 C   0  0  0  0  0  0  0  0  0  0  0  0
   42.5754  -45.4976    8.0640 C   0  0  0  0  0  0  0  0  0  0  0  0
   41.4769  -46.3338    7.9554 C   0  0  0  0  0  0  0  0  0  0  0  0
   40.4650  -46.3307    8.9030 C   0  0  0  0  0  0  0  0  0  0  0  0
   39.0661  -47.3793    8.7975 S   0  0  0  0  0  0  0  0  0  0  0  0
   38.5782  -47.8928    7.1640 C   0  0  2  0  0  0  0  0  0  0  0  0
   39.1819  -49.2376    6.7726 C   0  0  0  0  0  0  0  0  0  0  0  0
   38.8959  -46.8984    6.0878 C   0  0  0  0  0  0  0  0  0  0  0  0
   37.9637  -46.1546    5.7388 O   0  0  0  0  0  0  0  0  0  0  0  0
   40.1823  -46.8523    5.5445 N   0  0  0  0  0  0  0  0  0  0  0  0
   40.6181  -45.9682    4.5264 C   0  0  0  0  0  0  0  0  0  0  0  0
   39.6668  -45.0375    4.0492 C   0  0  0  0  0  0  0  0  0  0  0  0
   40.0513  -44.1606    3.0879 C   0  0  0  0  0  0  0  0  0  0  0  0
   41.3361  -44.1215    2.5389 C   0  0  0  0  0  0  0  0  0  0  0  0
   41.6070  -43.1793    1.5338 N   0  0  0  0  0  0  0  0  0  0  0  0
   42.7467  -43.1231    0.7193 C   0  0  0  0  0  0  0  0  0  0  0  0
   42.8662  -42.0854   -0.2789 N   0  0  0  0  0  0  0  0  0  0  0  0
   43.6867  -43.9144    0.7885 O   0  0  0  0  0  0  0  0  0  0  0  0
   42.2513  -45.0236    3.0037 C   0  0  0  0  0  0  0  0  0  0  0  0
   41.8588  -45.9369    4.0024 C   0  0  0  0  0  0  0  0  0  0  0  0
   40.6004  -45.4571    9.9600 C   0  0  0  0  0  0  0  0  0  0  0  0
   41.6983  -44.6133   10.0796 C   0  0  0  0  0  0  0  0  0  0  0  0
  1  2  1  0  0  0  0
  2  3  2  0  0  0  0
  3  4  1  0  0  0  0
  4  5  2  0  0  0  0
  5  6  1  0  0  0  0
  5 22  1  0  0  0  0
  6  7  1  0  0  0  0
  7  8  1  6  0  0  0
  7  9  1  0  0  0  0
  9 10  2  0  0  0  0
  9 11  1  0  0  0  0
 11 12  1  0  0  0  0
 12 13  2  0  0  0  0
 13 14  1  0  0  0  0
 14 15  2  0  0  0  0
 15 16  1  0  0  0  0
 15 20  1  0  0  0  0
 16 17  1  0  0  0  0
 17 18  1  0  0  0  0
 17 19  2  0  0  0  0
 20 21  2  0  0  0  0
 21 12  1  0  0  0  0
 22 23  2  0  0  0  0
 23  2  1  0  0  0  0
M  END
>  <CHROM.1>
-27.23652566,93.93977768,-97.76321930,1.49083725,-169.02599172,40.94203641
-45.46413554,5.64060816,-1.89736243,-0.68134004,-1.38650401

>  <Name>
design_10

>  <RI>
0

>  <Rbt.Current_Directory>
/home/ziqiaoxu/icml18-jtnn/VAEdesign

>  <Rbt.Executable>
rbdock ($Id: //depot/dev/client3/rdock/2013.1/src/exe/rbdock.cxx#4 $)

>  <Rbt.Library>
libRbt.so (2013.1, Build901 2013/11/27)

>  <Rbt.Parameter_File>
/export/apps/rDock/src/rDock_2013.1_src//data/scripts/dock.prm

>  <Rbt.Receptor>
/home/ziqiaoxu/icml18-jtnn/VAEdesign/targets/RdRp-SARS-CoV-2/pocket_docking.prm

>  <SCORE>
-18.9044

>  <SCORE.INTER>
-21.5131

>  <SCORE.INTER.CONST>
1

>  <SCORE.INTER.POLAR>
-1.96456

>  <SCORE.INTER.REPUL>
0

>  <SCORE.INTER.ROT>
5

>  <SCORE.INTER.VDW>
-25.2336

>  <SCORE.INTER.norm>
-0.935351

>  <SCORE.INTRA>
2.60872

>  <SCORE.INTRA.DIHEDRAL>
-0.142457

>  <SCORE.INTRA.DIHEDRAL.0>
5.04891

>  <SCORE.INTRA.POLAR>
0

>  <SCORE.INTRA.POLAR.0>
0

>  <SCORE.INTRA.REPUL>
0

>  <SCORE.INTRA.REPUL.0>
0

>  <SCORE.INTRA.VDW>
2.67995

>  <SCORE.INTRA.VDW.0>
-2.48686

>  <SCORE.INTRA.norm>
0.113423

>  <SCORE.RESTR>
0

>  <SCORE.RESTR.CAVITY>
0

>  <SCORE.RESTR.norm>
0

>  <SCORE.SYSTEM>
0

>  <SCORE.SYSTEM.CONST>
0

>  <SCORE.SYSTEM.DIHEDRAL>
0

>  <SCORE.SYSTEM.norm>
0

>  <SCORE.heavy>
23

>  <SCORE.norm>
-0.821929

$$$$
design_4
 OpenBabel05252019093D

 25 27  0  0  0  0  0  0  0  0999 V2000
   38.8677  -44.8590    8.7256 O   0  0  0  0  0  0  0  0  0  0  0  0
   39.0987  -46.0066    9.1406 C   0  0  0  0  0  0  0  0  0  0  0  0
   38.3468  -47.1464    8.5880 C   0  0  0  0  0  0  0  0  0  0  0  0
   39.2209  -48.1013    7.8270 C   0  0  0  0  0  0  0  0  0  0  0  0
   40.0524  -47.3808    6.8386 N   0  0  0  0  0  0  0  0  0  0  0  0
   39.4434  -46.8661    5.7036 C   0  0  0  0  0  0  0  0  0  0  0  0
   38.1752  -47.0576    5.5836 O   0  0  0  0  0  0  0  0  0  0  0  0
   40.0960  -46.1370    4.6414 C   0  0  0  0  0  0  0  0  0  0  0  0
   39.3152  -45.5766    3.6121 C   0  0  0  0  0  0  0  0  0  0  0  0
   39.8176  -44.8844    2.5570 C   0  0  0  0  0  0  0  0  0  0  0  0
   41.1852  -44.7064    2.4687 C   0  0  0  0  0  0  0  0  0  0  0  0
   41.9976  -45.2328    3.4478 C   0  0  0  0  0  0  0  0  0  0  0  0
   41.4504  -45.9456    4.5303 C   0  0  0  0  0  0  0  0  0  0  0  0
   42.3224  -46.4055    5.4368 F   0  0  0  0  0  0  0  0  0  0  0  0
   40.0738  -46.2201   10.1346 N   0  0  0  0  0  0  0  0  0  0  0  0
   40.8017  -45.1171   10.6697 C   0  0  0  0  0  0  0  0  0  0  0  0
   42.0025  -44.8729    9.7999 C   0  0  0  0  0  0  0  0  0  0  0  0
   43.1157  -44.2233   10.0782 N   0  0  0  0  0  0  0  0  0  0  0  0
   44.0561  -44.1141    9.1865 C   0  0  0  0  0  0  0  0  0  0  0  0
   45.2841  -43.4517    9.3547 C   0  0  0  0  0  0  0  0  0  0  0  0
   46.2000  -43.4020    8.3411 C   0  0  0  0  0  0  0  0  0  0  0  0
   45.9840  -43.9858    7.1137 C   0  0  0  0  0  0  0  0  0  0  0  0
   44.7874  -44.6367    6.9360 C   0  0  0  0  0  0  0  0  0  0  0  0
   43.8374  -44.6969    7.9650 C   0  0  0  0  0  0  0  0  0  0  0  0
   42.2808  -45.3696    8.1800 S   0  0  0  0  0  0  0  0  0  0  0  0
  1  2  2  0  0  0  0
  2  3  1  0  0  0  0
  2 15  1  0  0  0  0
  3  4  1  0  0  0  0
  4  5  1  0  0  0  0
  5  6  1  0  0  0  0
  6  7  2  0  0  0  0
  6  8  1  0  0  0  0
  8  9  2  0  0  0  0
  9 10  1  0  0  0  0
 10 11  2  0  0  0  0
 11 12  1  0  0  0  0
 12 13  2  0  0  0  0
 13 14  1  0  0  0  0
 13  8  1  0  0  0  0
 15 16  1  0  0  0  0
 16 17  1  0  0  0  0
 17 18  2  0  0  0  0
 18 19  1  0  0  0  0
 19 20  2  0  0  0  0
 20 21  1  0  0  0  0
 21 22  2  0  0  0  0
 22 23  1  0  0  0  0
 23 24  2  0  0  0  0
 24 25  1  0  0  0  0
 24 19  1  0  0  0  0
 25 17  1  0  0  0  0
M  END
>  <CHROM.1>
114.76563228,-50.34760885,-72.37819264,-174.39260442,-87.32072559,-160.17203029
41.49295763,-45.49967982,7.14530410,2.49272763,-0.41198465,-1.57215445

>  <Name>
design_4

>  <RI>
0

>  <Rbt.Current_Directory>
/home/ziqiaoxu/icml18-jtnn/VAEdesign

>  <Rbt.Executable>
rbdock ($Id: //depot/dev/client3/rdock/2013.1/src/exe/rbdock.cxx#4 $)

>  <Rbt.Library>
libRbt.so (2013.1, Build901 2013/11/27)

>  <Rbt.Parameter_File>
/export/apps/rDock/src/rDock_2013.1_src//data/scripts/dock.prm

>  <Rbt.Receptor>
/home/ziqiaoxu/icml18-jtnn/VAEdesign/targets/RdRp-SARS-CoV-2/pocket_docking.prm

>  <SCORE>
-21.8542

>  <SCORE.INTER>
-18.5832

>  <SCORE.INTER.CONST>
1

>  <SCORE.INTER.POLAR>
-1.3975

>  <SCORE.INTER.REPUL>
0

>  <SCORE.INTER.ROT>
6

>  <SCORE.INTER.VDW>
-25.2317

>  <SCORE.INTER.norm>
-0.743329

>  <SCORE.INTRA>
-3.27099

>  <SCORE.INTRA.DIHEDRAL>
0.0724354

>  <SCORE.INTRA.DIHEDRAL.0>
5.2868

>  <SCORE.INTRA.POLAR>
0.020332

>  <SCORE.INTRA.POLAR.0>
-0.020332

>  <SCORE.INTRA.REPUL>
0

>  <SCORE.INTRA.REPUL.0>
0

>  <SCORE.INTRA.VDW>
-3.37634

>  <SCORE.INTRA.VDW.0>
0.109506

>  <SCORE.INTRA.norm>
-0.13084

>  <SCORE.RESTR>
0

>  <SCORE.RESTR.CAVITY>
0

>  <SCORE.RESTR.norm>
0

>  <SCORE.SYSTEM>
0

>  <SCORE.SYSTEM.CONST>
0

>  <SCORE.SYSTEM.DIHEDRAL>
0

>  <SCORE.SYSTEM.norm>
0

>  <SCORE.heavy>
25

>  <SCORE.norm>
-0.874168

$$$$
design_1
 OpenBabel05252019093D

 25 28  0  0  0  0  0  0  0  0999 V2000
   38.4101  -49.0464    6.6325 C   0  0  0  0  0  0  0  0  0  0  0  0
   38.8906  -48.0302    7.6055 C   0  0  0  0  0  0  0  0  0  0  0  0
   38.1296  -47.5859    8.6212 N   0  0  0  0  0  0  0  0  0  0  0  0
   38.8625  -46.7046    9.2724 N   0  0  0  0  0  0  0  0  0  0  0  0
   40.0753  -46.5639    8.7103 C   0  0  0  0  0  0  0  0  0  0  0  0
   41.1448  -45.6806    9.1592 C   0  0  0  0  0  0  0  0  0  0  0  0
   41.0648  -45.0271   10.3678 C   0  0  0  0  0  0  0  0  0  0  0  0
   42.0839  -44.1920   10.7851 C   0  0  0  0  0  0  0  0  0  0  0  0
   43.2083  -44.0103    9.9688 C   0  0  0  0  0  0  0  0  0  0  0  0
   43.3041  -44.6496    8.7688 C   0  0  0  0  0  0  0  0  0  0  0  0
   44.4498  -44.4934    7.8882 C   0  0  0  0  0  0  0  0  0  0  0  0
   45.3527  -43.6463    8.2090 O   0  0  0  0  0  0  0  0  0  0  0  0
   44.6387  -45.2175    6.6917 N   0  0  0  0  0  0  0  0  0  0  0  0
   45.7675  -45.0394    5.8396 C   0  0  0  0  0  0  0  0  0  0  0  0
   45.4685  -45.3699    4.3838 C   0  0  0  0  0  0  0  0  0  0  0  0
   44.2147  -45.2039    3.8759 C   0  0  0  0  0  0  0  0  0  0  0  0
   44.3644  -45.7375    2.2614 S   0  0  0  0  0  0  0  0  0  0  0  0
   46.0113  -46.1589    2.2689 C   0  0  0  0  0  0  0  0  0  0  0  0
   46.4112  -45.8721    3.5386 C   0  0  0  0  0  0  0  0  0  0  0  0
   47.8842  -46.1687    3.8058 C   0  0  0  0  0  0  0  0  0  0  0  0
   48.0668  -47.6129    3.3363 C   0  0  0  0  0  0  0  0  0  0  0  0
   47.9040  -47.7258    1.8524 C   0  0  0  0  0  0  0  0  0  0  0  0
   46.9833  -46.7213    1.2493 C   0  0  0  0  0  0  0  0  0  0  0  0
   42.2550  -45.4744    8.3993 C   0  0  0  0  0  0  0  0  0  0  0  0
   40.0891  -47.4022    7.6586 N   0  0  0  0  0  0  0  0  0  0  0  0
  1  2  1  0  0  0  0
  2  3  2  0  0  0  0
  3  4  1  0  0  0  0
  4  5  1  0  0  0  0
  5  6  1  0  0  0  0
  5 25  2  0  0  0  0
  6  7  2  0  0  0  0
  7  8  1  0  0  0  0
  8  9  2  0  0  0  0
  9 10  1  0  0  0  0
 10 11  1  0  0  0  0
 10 24  2  0  0  0  0
 11 12  2  0  0  0  0
 11 13  1  0  0  0  0
 13 14  1  0  0  0  0
 14 15  1  0  0  0  0
 15 16  2  0  0  0  0
 16 17  1  0  0  0  0
 17 18  1  0  0  0  0
 18 19  2  0  0  0  0
 19 20  1  0  0  0  0
 19 15  1  0  0  0  0
 20 21  1  0  0  0  0
 21 22  1  0  0  0  0
 22 23  1  0  0  0  0
 23 18  1  0  0  0  0
 24  6  1  0  0  0  0
 25  2  1  0  0  0  0
M  END
>  <CHROM.1>
9.91752660,-5.37343065,-152.37308247,29.55922148,43.45574357,-45.97997773
6.21615300,2.48933226,0.42576231,1.08075360

>  <Name>
design_1

>  <RI>
0

>  <Rbt.Current_Directory>
/home/ziqiaoxu/icml18-jtnn/VAEdesign

>  <Rbt.Executable>
rbdock ($Id: //depot/dev/client3/rdock/2013.1/src/exe/rbdock.cxx#4 $)

>  <Rbt.Library>
libRbt.so (2013.1, Build901 2013/11/27)

>  <Rbt.Parameter_File>
/export/apps/rDock/src/rDock_2013.1_src//data/scripts/dock.prm

>  <Rbt.Receptor>
/home/ziqiaoxu/icml18-jtnn/VAEdesign/targets/RdRp-SARS-CoV-2/pocket_docking.prm

>  <SCORE>
-18.9851

>  <SCORE.INTER>
-19.2951

>  <SCORE.INTER.CONST>
1

>  <SCORE.INTER.POLAR>
-1.01875

>  <SCORE.INTER.REPUL>
0

>  <SCORE.INTER.ROT>
4

>  <SCORE.INTER.VDW>
-25.2314

>  <SCORE.INTER.norm>
-0.771806

>  <SCORE.INTRA>
0.310066

>  <SCORE.INTRA.DIHEDRAL>
0.418266

>  <SCORE.INTRA.DIHEDRAL.0>
2.55478

>  <SCORE.INTRA.POLAR>
0

>  <SCORE.INTRA.POLAR.0>
0

>  <SCORE.INTRA.REPUL>
0

>  <SCORE.INTRA.REPUL.0>
0

>  <SCORE.INTRA.VDW>
0.100933

>  <SCORE.INTRA.VDW.0>
-1.13179

>  <SCORE.INTRA.norm>
0.0124027

>  <SCORE.RESTR>
0

>  <SCORE.RESTR.CAVITY>
0

>  <SCORE.RESTR.norm>
0

>  <SCORE.SYSTEM>
0

>  <SCORE.SYSTEM.CONST>
0

>  <SCORE.SYSTEM.DIHEDRAL>
0

>  <SCORE.SYSTEM.norm>
0

>  <SCORE.heavy>
25

>  <SCORE.norm>
-0.759403

$$$$
design_6
 OpenBabel05252019093D

 27 30  0  0  0  0  0  0  0  0999 V2000
   49.1039  -47.9946    0.6083 C   0  0  0  0  0  0  0  0  0  0  0  0
   47.8161  -47.3940    1.0258 C   0  0  0  0  0  0  0  0  0  0  0  0
   47.5474  -47.0706    2.3664 C   0  0  0  0  0  0  0  0  0  0  0  0
   46.3653  -46.5157    2.7715 C   0  0  0  0  0  0  0  0  0  0  0  0
   46.0928  -46.1912    4.1099 N   0  0  0  0  0  0  0  0  0  0  0  0
   45.4505  -45.0647    4.6367 C   0  0  0  0  0  0  0  0  0  0  0  0
   44.9870  -44.1085    3.9728 O   0  0  0  0  0  0  0  0  0  0  0  0
   45.2995  -44.9900    6.1424 C   0  0  0  0  0  0  0  0  0  0  0  0
   44.2888  -43.9481    6.4496 C   0  0  0  0  0  0  0  0  0  0  0  0
   43.3345  -44.3124    7.4509 N   0  0  0  0  0  0  0  0  0  0  0  0
   43.3400  -43.6671    8.6054 N   0  0  0  0  0  0  0  0  0  0  0  0
   42.4762  -43.9573    9.5829 N   0  0  0  0  0  0  0  0  0  0  0  0
   41.5505  -44.9081    9.4764 C   0  0  0  0  0  0  0  0  0  0  0  0
   40.6475  -45.2261   10.4721 C   0  0  0  0  0  0  0  0  0  0  0  0
   39.7081  -46.2240   10.3045 C   0  0  0  0  0  0  0  0  0  0  0  0
   39.6483  -46.9452    9.1072 C   0  0  0  0  0  0  0  0  0  0  0  0
   40.5637  -46.6033    8.1333 C   0  0  0  0  0  0  0  0  0  0  0  0
   41.5049  -45.6158    8.2789 C   0  0  0  0  0  0  0  0  0  0  0  0
   42.4141  -45.2818    7.3016 C   0  0  0  0  0  0  0  0  0  0  0  0
   42.3993  -45.9016    6.2093 O   0  0  0  0  0  0  0  0  0  0  0  0
   45.3795  -46.2581    1.8114 C   0  0  0  0  0  0  0  0  0  0  0  0
   44.1859  -45.7092    2.1484 N   0  0  0  0  0  0  0  0  0  0  0  0
   43.2122  -45.4445    1.2646 C   0  0  0  0  0  0  0  0  0  0  0  0
   43.4274  -45.7431   -0.0606 C   0  0  0  0  0  0  0  0  0  0  0  0
   44.6258  -46.3019   -0.4477 C   0  0  0  0  0  0  0  0  0  0  0  0
   45.6161  -46.5648    0.4916 C   0  0  0  0  0  0  0  0  0  0  0  0
   46.8187  -47.1229    0.1197 C   0  0  0  0  0  0  0  0  0  0  0  0
  1  2  1  0  0  0  0
  2  3  2  0  0  0  0
  3  4  1  0  0  0  0
  4  5  1  0  0  0  0
  4 21  2  0  0  0  0
  5  6  1  0  0  0  0
  6  7  2  0  0  0  0
  6  8  1  0  0  0  0
  8  9  1  0  0  0  0
  9 10  1  0  0  0  0
 10 11  1  0  0  0  0
 11 12  2  0  0  0  0
 12 13  1  0  0  0  0
 13 14  2  0  0  0  0
 14 15  1  0  0  0  0
 15 16  2  0  0  0  0
 16 17  1  0  0  0  0
 17 18  2  0  0  0  0
 18 19  1  0  0  0  0
 18 13  1  0  0  0  0
 19 20  2  0  0  0  0
 19 10  1  0  0  0  0
 21 22  1  0  0  0  0
 22 23  2  0  0  0  0
 23 24  1  0  0  0  0
 24 25  2  0  0  0  0
 25 26  1  0  0  0  0
 26 27  2  0  0  0  0
 26 21  1  0  0  0  0
 27  2  1  0  0  0  0
M  END
>  <CHROM.1>
139.03620532,-164.45955790,135.91782439,113.52568354,44.01463109,-45.72157447
4.91783656,-1.01970777,0.10657879,1.33852395

>  <Name>
design_6

>  <RI>
0

>  <Rbt.Current_Directory>
/home/ziqiaoxu/icml18-jtnn/VAEdesign

>  <Rbt.Executable>
rbdock ($Id: //depot/dev/client3/rdock/2013.1/src/exe/rbdock.cxx#4 $)

>  <Rbt.Library>
libRbt.so (2013.1, Build901 2013/11/27)

>  <Rbt.Parameter_File>
/export/apps/rDock/src/rDock_2013.1_src//data/scripts/dock.prm

>  <Rbt.Receptor>
/home/ziqiaoxu/icml18-jtnn/VAEdesign/targets/RdRp-SARS-CoV-2/pocket_docking.prm

>  <SCORE>
-13.4495

>  <SCORE.INTER>
-18.2818

>  <SCORE.INTER.CONST>
1

>  <SCORE.INTER.POLAR>
-0.721958

>  <SCORE.INTER.REPUL>
0

>  <SCORE.INTER.ROT>
4

>  <SCORE.INTER.VDW>
-25.2271

>  <SCORE.INTER.norm>
-0.677102

>  <SCORE.INTRA>
4.82829

>  <SCORE.INTRA.DIHEDRAL>
10.3758

>  <SCORE.INTRA.DIHEDRAL.0>
3.49607

>  <SCORE.INTRA.POLAR>
0.0283725

>  <SCORE.INTRA.POLAR.0>
-0.0283725

>  <SCORE.INTRA.REPUL>
0.0074237

>  <SCORE.INTRA.REPUL.0>
0

>  <SCORE.INTRA.VDW>
-0.493188

>  <SCORE.INTRA.VDW.0>
1.25816

>  <SCORE.INTRA.norm>
0.178826

>  <SCORE.RESTR>
0.00393657

>  <SCORE.RESTR.CAVITY>
0.00393657

>  <SCORE.RESTR.norm>
0.000145799

>  <SCORE.SYSTEM>
0

>  <SCORE.SYSTEM.CONST>
0

>  <SCORE.SYSTEM.DIHEDRAL>
0

>  <SCORE.SYSTEM.norm>
0

>  <SCORE.heavy>
27

>  <SCORE.norm>
-0.498131

$$$$
design_7
 OpenBabel05252019093D

 27 30  0  0  0  0  0  0  0  0999 V2000
   41.0529  -36.0041    3.2947 C   0  0  0  0  0  0  0  0  0  0  0  0
   40.3737  -37.0837    4.0403 C   0  0  0  0  0  0  0  0  0  0  0  0
   39.3338  -37.7714    3.5028 N   0  0  0  0  0  0  0  0  0  0  0  0
   38.9380  -38.6613    4.3840 N   0  0  0  0  0  0  0  0  0  0  0  0
   39.6947  -38.5726    5.4869 C   0  0  0  0  0  0  0  0  0  0  0  0
   39.6348  -39.3578    6.7155 C   0  0  0  0  0  0  0  0  0  0  0  0
   40.5675  -39.1777    7.7211 C   0  0  0  0  0  0  0  0  0  0  0  0
   40.5275  -39.9016    8.8987 C   0  0  0  0  0  0  0  0  0  0  0  0
   39.5427  -40.8512    9.1312 C   0  0  0  0  0  0  0  0  0  0  0  0
   39.4931  -41.6079   10.4057 C   0  0  0  0  0  0  0  0  0  0  0  0
   39.1821  -43.0224   10.2005 N   0  0  0  0  0  0  0  0  0  0  0  0
   39.8222  -43.7191    9.1914 C   0  0  0  0  0  0  0  0  0  0  0  0
   40.6784  -43.0945    8.4861 O   0  0  0  0  0  0  0  0  0  0  0  0
   39.5772  -45.1167    8.8954 C   0  0  0  0  0  0  0  0  0  0  0  0
   38.9871  -45.4073    7.6490 C   0  0  0  0  0  0  0  0  0  0  0  0
   38.7761  -46.7160    7.3229 C   0  0  0  0  0  0  0  0  0  0  0  0
   38.1998  -46.9948    6.1011 C   0  0  0  0  0  0  0  0  0  0  0  0
   37.9831  -48.3062    5.7608 C   0  0  0  0  0  0  0  0  0  0  0  0
   38.3178  -49.3439    6.5897 C   0  0  0  0  0  0  0  0  0  0  0  0
   38.8914  -49.0263    7.8015 C   0  0  0  0  0  0  0  0  0  0  0  0
   39.1373  -47.7129    8.2033 C   0  0  0  0  0  0  0  0  0  0  0  0
   39.6824  -47.4384    9.3560 O   0  0  0  0  0  0  0  0  0  0  0  0
   39.8908  -46.1681    9.6795 C   0  0  0  0  0  0  0  0  0  0  0  0
   40.4192  -46.0060   10.8145 O   0  0  0  0  0  0  0  0  0  0  0  0
   38.6184  -41.0210    8.1191 C   0  0  0  0  0  0  0  0  0  0  0  0
   38.6536  -40.2999    6.9394 C   0  0  0  0  0  0  0  0  0  0  0  0
   40.5840  -37.5901    5.2653 N   0  0  0  0  0  0  0  0  0  0  0  0
  1  2  1  0  0  0  0
  2  3  2  0  0  0  0
  3  4  1  0  0  0  0
  4  5  1  0  0  0  0
  5  6  1  0  0  0  0
  5 27  2  0  0  0  0
  6  7  2  0  0  0  0
  7  8  1  0  0  0  0
  8  9  2  0  0  0  0
  9 10  1  0  0  0  0
  9 25  1  0  0  0  0
 10 11  1  0  0  0  0
 11 12  1  0  0  0  0
 12 13  2  0  0  0  0
 12 14  1  0  0  0  0
 14 15  2  0  0  0  0
 15 16  1  0  0  0  0
 16 17  2  0  0  0  0
 17 18  1  0  0  0  0
 18 19  2  0  0  0  0
 19 20  1  0  0  0  0
 20 21  2  0  0  0  0
 21 22  1  0  0  0  0
 21 16  1  0  0  0  0
 22 23  1  0  0  0  0
 23 24  2  0  0  0  0
 23 14  1  0  0  0  0
 25 26  2  0  0  0  0
 26  6  1  0  0  0  0
 27  2  1  0  0  0  0
M  END
>  <CHROM.1>
175.59303147,-138.46431898,44.78223088,114.25012261,39.52052992,-42.79273947
7.42256281,1.15494103,-1.33583762,-0.71757756

>  <Name>
design_7

>  <RI>
0

>  <Rbt.Current_Directory>
/home/ziqiaoxu/icml18-jtnn/VAEdesign

>  <Rbt.Executable>
rbdock ($Id: //depot/dev/client3/rdock/2013.1/src/exe/rbdock.cxx#4 $)

>  <Rbt.Library>
libRbt.so (2013.1, Build901 2013/11/27)

>  <Rbt.Parameter_File>
/export/apps/rDock/src/rDock_2013.1_src//data/scripts/dock.prm

>  <Rbt.Receptor>
/home/ziqiaoxu/icml18-jtnn/VAEdesign/targets/RdRp-SARS-CoV-2/pocket_docking.prm

>  <SCORE>
-16.504

>  <SCORE.INTER>
-21.2517

>  <SCORE.INTER.CONST>
1

>  <SCORE.INTER.POLAR>
-2.01459

>  <SCORE.INTER.REPUL>
0.284958

>  <SCORE.INTER.ROT>
4

>  <SCORE.INTER.VDW>
-25.2269

>  <SCORE.INTER.norm>
-0.787099

>  <SCORE.INTRA>
4.74764

>  <SCORE.INTRA.DIHEDRAL>
8.91787

>  <SCORE.INTRA.DIHEDRAL.0>
3.88531

>  <SCORE.INTRA.POLAR>
0

>  <SCORE.INTRA.POLAR.0>
0

>  <SCORE.INTRA.REPUL>
0

>  <SCORE.INTRA.REPUL.0>
0

>  <SCORE.INTRA.VDW>
0.288711

>  <SCORE.INTRA.VDW.0>
-1.59643

>  <SCORE.INTRA.norm>
0.175839

>  <SCORE.RESTR>
0

>  <SCORE.RESTR.CAVITY>
0

>  <SCORE.RESTR.norm>
0

>  <SCORE.SYSTEM>
0

>  <SCORE.SYSTEM.CONST>
0

>  <SCORE.SYSTEM.DIHEDRAL>
0

>  <SCORE.SYSTEM.norm>
0

>  <SCORE.heavy>
27

>  <SCORE.norm>
-0.611261

$$$$
design_13
 OpenBabel05252019093D

 25 28  0  0  0  0  0  0  0  0999 V2000
   47.1225  -47.4630    2.0542 C   0  0  0  0  0  0  0  0  0  0  0  0
   47.6678  -47.2699    3.3046 C   0  0  0  0  0  0  0  0  0  0  0  0
   47.0314  -46.3905    4.1592 C   0  0  0  0  0  0  0  0  0  0  0  0
   45.8912  -45.6990    3.8389 C   0  0  0  0  0  0  0  0  0  0  0  0
   45.2120  -44.7583    4.7628 C   0  0  0  0  0  0  0  0  0  0  0  0
   44.0129  -45.2836    5.4037 C   0  0  0  0  0  0  0  0  0  0  0  0
   42.9448  -45.8223    4.7564 N   0  0  0  0  0  0  0  0  0  0  0  0
   42.0075  -46.2016    5.6260 C   0  0  0  0  0  0  0  0  0  0  0  0
   40.7665  -46.7884    5.4807 C   0  0  0  0  0  0  0  0  0  0  0  0
   40.0428  -47.0506    6.6241 C   0  0  0  0  0  0  0  0  0  0  0  0
   40.5162  -46.7478    7.8965 C   0  0  0  0  0  0  0  0  0  0  0  0
   41.7561  -46.1649    7.9904 C   0  0  0  0  0  0  0  0  0  0  0  0
   42.5145  -45.8845    6.8771 C   0  0  0  0  0  0  0  0  0  0  0  0
   43.7422  -45.3246    6.7047 N   0  0  0  0  0  0  0  0  0  0  0  0
   44.5462  -44.8701    7.7996 C   0  0  0  0  0  0  0  0  0  0  0  0
   43.9685  -43.6433    8.4691 C   0  0  0  0  0  0  0  0  0  0  0  0
   44.8277  -43.1262    9.4547 O   0  0  0  0  0  0  0  0  0  0  0  0
   45.2769  -43.8591   10.5372 C   0  0  0  0  0  0  0  0  0  0  0  0
   44.4324  -44.2119   11.5686 C   0  0  0  0  0  0  0  0  0  0  0  0
   44.8707  -44.9433   12.6537 C   0  0  0  0  0  0  0  0  0  0  0  0
   46.1818  -45.3492   12.7422 C   0  0  0  0  0  0  0  0  0  0  0  0
   47.0523  -45.0124   11.7266 C   0  0  0  0  0  0  0  0  0  0  0  0
   46.5985  -44.2808   10.6488 C   0  0  0  0  0  0  0  0  0  0  0  0
   45.3813  -45.9320    2.5593 C   0  0  0  0  0  0  0  0  0  0  0  0
   45.9743  -46.7970    1.6676 C   0  0  0  0  0  0  0  0  0  0  0  0
  1  2  2  0  0  0  0
  2  3  1  0  0  0  0
  3  4  2  0  0  0  0
  4  5  1  0  0  0  0
  4 24  1  0  0  0  0
  5  6  1  0  0  0  0
  6  7  2  0  0  0  0
  7  8  1  0  0  0  0
  8  9  2  0  0  0  0
  9 10  1  0  0  0  0
 10 11  2  0  0  0  0
 11 12  1  0  0  0  0
 12 13  2  0  0  0  0
 13 14  1  0  0  0  0
 13  8  1  0  0  0  0
 14 15  1  0  0  0  0
 14  6  1  0  0  0  0
 15 16  1  0  0  0  0
 16 17  1  0  0  0  0
 17 18  1  0  0  0  0
 18 19  2  0  0  0  0
 19 20  1  0  0  0  0
 20 21  2  0  0  0  0
 21 22  1  0  0  0  0
 22 23  2  0  0  0  0
 23 18  1  0  0  0  0
 24 25  2  0  0  0  0
 25  1  1  0  0  0  0
M  END
>  <CHROM.1>
-102.66641238,-54.15613210,110.08452377,-174.12397172,-57.51553168,-70.89956460
44.41963489,-45.52522417,7.03523100,-1.55042833,0.13038741,1.32629989

>  <Name>
design_13

>  <RI>
0

>  <Rbt.Current_Directory>
/home/ziqiaoxu/icml18-jtnn/VAEdesign

>  <Rbt.Executable>
rbdock ($Id: //depot/dev/client3/rdock/2013.1/src/exe/rbdock.cxx#4 $)

>  <Rbt.Library>
libRbt.so (2013.1, Build901 2013/11/27)

>  <Rbt.Parameter_File>
/export/apps/rDock/src/rDock_2013.1_src//data/scripts/dock.prm

>  <Rbt.Receptor>
/home/ziqiaoxu/icml18-jtnn/VAEdesign/targets/RdRp-SARS-CoV-2/pocket_docking.prm

>  <SCORE>
-13.1782

>  <SCORE.INTER>
-14.8692

>  <SCORE.INTER.CONST>
1

>  <SCORE.INTER.POLAR>
-0.306714

>  <SCORE.INTER.REPUL>
0

>  <SCORE.INTER.ROT>
6

>  <SCORE.INTER.VDW>
-25.2263

>  <SCORE.INTER.norm>
-0.594766

>  <SCORE.INTRA>
1.69097

>  <SCORE.INTRA.DIHEDRAL>
4.41626

>  <SCORE.INTRA.DIHEDRAL.0>
4.49777

>  <SCORE.INTRA.POLAR>
0

>  <SCORE.INTRA.POLAR.0>
0

>  <SCORE.INTRA.REPUL>
0

>  <SCORE.INTRA.REPUL.0>
0

>  <SCORE.INTRA.VDW>
-0.517166

>  <SCORE.INTRA.VDW.0>
-1.198

>  <SCORE.INTRA.norm>
0.0676386

>  <SCORE.RESTR>
0

>  <SCORE.RESTR.CAVITY>
0

>  <SCORE.RESTR.norm>
0

>  <SCORE.SYSTEM>
0

>  <SCORE.SYSTEM.CONST>
0

>  <SCORE.SYSTEM.DIHEDRAL>
0

>  <SCORE.SYSTEM.norm>
0

>  <SCORE.heavy>
25

>  <SCORE.norm>
-0.527128

$$$$
design_9
 OpenBabel05252019093D

 25 27  0  0  0  0  0  0  0  0999 V2000
   39.5582  -46.5200   10.1732 N   0  0  0  0  0  0  0  0  0  0  0  0
   39.1132  -46.9004    8.8931 C   0  0  0  0  0  0  0  0  0  0  0  0
   37.9669  -47.3674    8.7477 O   0  0  0  0  0  0  0  0  0  0  0  0
   39.9789  -46.7522    7.7457 C   0  0  0  0  0  0  0  0  0  0  0  0
   39.6139  -47.1532    6.4745 C   0  0  0  0  0  0  0  0  0  0  0  0
   40.4862  -46.9843    5.4204 C   0  0  0  0  0  0  0  0  0  0  0  0
   41.7273  -46.4219    5.5906 C   0  0  0  0  0  0  0  0  0  0  0  0
   42.1140  -46.0075    6.8836 C   0  0  0  0  0  0  0  0  0  0  0  0
   43.3990  -45.4247    7.0073 N   0  0  0  0  0  0  0  0  0  0  0  0
   44.3418  -45.2243    6.0027 C   0  0  0  0  0  0  0  0  0  0  0  0
   44.2267  -45.5213    4.7809 O   0  0  0  0  0  0  0  0  0  0  0  0
   45.6433  -44.5932    6.3605 C   0  0  0  0  0  0  0  0  0  0  0  0
   46.6568  -44.4636    5.4382 C   0  0  0  0  0  0  0  0  0  0  0  0
   47.8608  -43.8696    5.8478 C   0  0  0  0  0  0  0  0  0  0  0  0
   48.0130  -43.4313    7.1409 C   0  0  0  0  0  0  0  0  0  0  0  0
   46.9951  -43.5645    8.0561 C   0  0  0  0  0  0  0  0  0  0  0  0
   47.1203  -43.1299    9.3728 O   0  0  0  0  0  0  0  0  0  0  0  0
   46.4728  -43.8372   10.3954 C   0  0  0  0  0  0  0  0  0  0  0  0
   45.1490  -43.5867   10.7153 C   0  0  0  0  0  0  0  0  0  0  0  0
   44.5572  -44.3099   11.7300 C   0  0  0  0  0  0  0  0  0  0  0  0
   45.2630  -45.2782   12.4308 C   0  0  0  0  0  0  0  0  0  0  0  0
   46.5919  -45.5385   12.1189 C   0  0  0  0  0  0  0  0  0  0  0  0
   47.1487  -44.7941   11.0973 C   0  0  0  0  0  0  0  0  0  0  0  0
   45.8217  -44.1458    7.6496 C   0  0  0  0  0  0  0  0  0  0  0  0
   41.2522  -46.1734    7.9295 C   0  0  0  0  0  0  0  0  0  0  0  0
  1  2  1  0  0  0  0
  2  3  2  0  0  0  0
  2  4  1  0  0  0  0
  4  5  2  0  0  0  0
  5  6  1  0  0  0  0
  6  7  2  0  0  0  0
  7  8  1  0  0  0  0
  8  9  1  0  0  0  0
  8 25  2  0  0  0  0
  9 10  1  0  0  0  0
 10 11  2  0  0  0  0
 10 12  1  0  0  0  0
 12 13  2  0  0  0  0
 13 14  1  0  0  0  0
 14 15  2  0  0  0  0
 15 16  1  0  0  0  0
 16 17  1  0  0  0  0
 16 24  2  0  0  0  0
 17 18  1  0  0  0  0
 18 19  2  0  0  0  0
 19 20  1  0  0  0  0
 20 21  2  0  0  0  0
 21 22  1  0  0  0  0
 22 23  2  0  0  0  0
 23 18  1  0  0  0  0
 24 12  1  0  0  0  0
 25  4  1  0  0  0  0
M  END
>  <CHROM.1>
177.59010153,-0.88346755,174.79928620,-146.47016374,-84.95044101,43.82975442
-45.25272322,8.17156440,2.96270212,-0.37259601,-1.60245915

>  <Name>
design_9

>  <RI>
0

>  <Rbt.Current_Directory>
/home/ziqiaoxu/icml18-jtnn/VAEdesign

>  <Rbt.Executable>
rbdock ($Id: //depot/dev/client3/rdock/2013.1/src/exe/rbdock.cxx#4 $)

>  <Rbt.Library>
libRbt.so (2013.1, Build901 2013/11/27)

>  <Rbt.Parameter_File>
/export/apps/rDock/src/rDock_2013.1_src//data/scripts/dock.prm

>  <Rbt.Receptor>
/home/ziqiaoxu/icml18-jtnn/VAEdesign/targets/RdRp-SARS-CoV-2/pocket_docking.prm

>  <SCORE>
-21.3952

>  <SCORE.INTER>
-21.6924

>  <SCORE.INTER.CONST>
1

>  <SCORE.INTER.POLAR>
-2.0198

>  <SCORE.INTER.REPUL>
0

>  <SCORE.INTER.ROT>
5

>  <SCORE.INTER.VDW>
-25.2251

>  <SCORE.INTER.norm>
-0.867698

>  <SCORE.INTRA>
0.297288

>  <SCORE.INTRA.DIHEDRAL>
-0.867636

>  <SCORE.INTRA.DIHEDRAL.0>
7.21548

>  <SCORE.INTRA.POLAR>
0

>  <SCORE.INTRA.POLAR.0>
0

>  <SCORE.INTRA.REPUL>
0

>  <SCORE.INTRA.REPUL.0>
0

>  <SCORE.INTRA.VDW>
0.731106

>  <SCORE.INTRA.VDW.0>
-0.204312

>  <SCORE.INTRA.norm>
0.0118915

>  <SCORE.RESTR>
0

>  <SCORE.RESTR.CAVITY>
0

>  <SCORE.RESTR.norm>
0

>  <SCORE.SYSTEM>
0

>  <SCORE.SYSTEM.CONST>
0

>  <SCORE.SYSTEM.DIHEDRAL>
0

>  <SCORE.SYSTEM.norm>
0

>  <SCORE.heavy>
25

>  <SCORE.norm>
-0.855806

$$$$
design_16
 OpenBabel05252019093D

 24 26  0  0  0  0  0  0  0  0999 V2000
   40.5367  -46.0050   10.7343 N   0  0  0  0  0  0  0  0  0  0  0  0
   40.9081  -45.5192    9.4463 C   0  0  0  0  0  0  0  0  0  0  0  0
   41.5743  -44.4829    9.3620 O   0  0  0  0  0  0  0  0  0  0  0  0
   40.4784  -46.2805    8.2803 C   0  0  0  0  0  0  0  0  0  0  0  0
   39.6550  -47.3755    8.4529 C   0  0  0  0  0  0  0  0  0  0  0  0
   39.2903  -48.0652    7.3242 C   0  0  0  0  0  0  0  0  0  0  0  0
   39.7023  -47.7173    6.0579 C   0  0  0  0  0  0  0  0  0  0  0  0
   40.5478  -46.5959    5.8717 C   0  0  0  0  0  0  0  0  0  0  0  0
   40.9594  -46.2355    4.5050 C   0  0  0  0  0  0  0  0  0  0  0  0
   40.5230  -44.8851    4.0362 C   0  0  0  0  0  0  0  0  0  0  0  0
   40.1690  -44.8322    2.5906 C   0  0  0  0  0  0  0  0  0  0  0  0
   40.7735  -43.6755    1.9529 N   0  0  0  0  0  0  0  0  0  0  0  0
   42.1412  -43.6627    1.6030 C   0  0  0  0  0  0  0  0  0  0  0  0
   42.8909  -44.6251    1.8338 O   0  0  0  0  0  0  0  0  0  0  0  0
   42.7069  -42.4928    0.9545 C   0  0  0  0  0  0  0  0  0  0  0  0
   42.2076  -41.2058    0.8331 C   0  0  0  0  0  0  0  0  0  0  0  0
   43.0548  -40.4490    0.1291 N   0  0  0  0  0  0  0  0  0  0  0  0
   44.1071  -41.2116   -0.2181 C   0  0  0  0  0  0  0  0  0  0  0  0
   45.2766  -40.9733   -0.9202 C   0  0  0  0  0  0  0  0  0  0  0  0
   46.1915  -41.9822   -1.0974 C   0  0  0  0  0  0  0  0  0  0  0  0
   46.0030  -43.2684   -0.5956 C   0  0  0  0  0  0  0  0  0  0  0  0
   44.8311  -43.4829    0.0994 C   0  0  0  0  0  0  0  0  0  0  0  0
   43.9141  -42.4834    0.2812 C   0  0  0  0  0  0  0  0  0  0  0  0
   40.8935  -45.9278    7.0170 C   0  0  0  0  0  0  0  0  0  0  0  0
  1  2  1  0  0  0  0
  2  3  2  0  0  0  0
  2  4  1  0  0  0  0
  4  5  2  0  0  0  0
  5  6  1  0  0  0  0
  6  7  2  0  0  0  0
  7  8  1  0  0  0  0
  8  9  1  0  0  0  0
  8 24  2  0  0  0  0
  9 10  1  0  0  0  0
 10 11  1  0  0  0  0
 11 12  1  0  0  0  0
 12 13  1  0  0  0  0
 13 14  2  0  0  0  0
 13 15  1  0  0  0  0
 15 16  2  0  0  0  0
 16 17  1  0  0  0  0
 17 18  1  0  0  0  0
 18 19  2  0  0  0  0
 19 20  1  0  0  0  0
 20 21  2  0  0  0  0
 21 22  1  0  0  0  0
 22 23  2  0  0  0  0
 23 15  1  0  0  0  0
 23 18  1  0  0  0  0
 24  4  1  0  0  0  0
M  END
>  <CHROM.1>
4.68799558,118.25595519,-144.15196297,-133.80933216,77.42613796,15.19280527
42.02450214,-44.31296117,3.75768745,-2.16599637,-0.82770106,-1.55479381

>  <Name>
design_16

>  <RI>
0

>  <Rbt.Current_Directory>
/home/ziqiaoxu/icml18-jtnn/VAEdesign

>  <Rbt.Executable>
rbdock ($Id: //depot/dev/client3/rdock/2013.1/src/exe/rbdock.cxx#4 $)

>  <Rbt.Library>
libRbt.so (2013.1, Build901 2013/11/27)

>  <Rbt.Parameter_File>
/export/apps/rDock/src/rDock_2013.1_src//data/scripts/dock.prm

>  <Rbt.Receptor>
/home/ziqiaoxu/icml18-jtnn/VAEdesign/targets/RdRp-SARS-CoV-2/pocket_docking.prm

>  <SCORE>
-23.0856

>  <SCORE.INTER>
-22.3577

>  <SCORE.INTER.CONST>
1

>  <SCORE.INTER.POLAR>
-2.65232

>  <SCORE.INTER.REPUL>
0.0968766

>  <SCORE.INTER.ROT>
6

>  <SCORE.INTER.VDW>
-25.2242

>  <SCORE.INTER.norm>
-0.931569

>  <SCORE.INTRA>
-0.727922

>  <SCORE.INTRA.DIHEDRAL>
-2.29714

>  <SCORE.INTRA.DIHEDRAL.0>
13.6029

>  <SCORE.INTRA.POLAR>
0

>  <SCORE.INTRA.POLAR.0>
0

>  <SCORE.INTRA.REPUL>
0

>  <SCORE.INTRA.REPUL.0>
0

>  <SCORE.INTRA.VDW>
0.420646

>  <SCORE.INTRA.VDW.0>
-1.43022

>  <SCORE.INTRA.norm>
-0.0303301

>  <SCORE.RESTR>
0

>  <SCORE.RESTR.CAVITY>
0

>  <SCORE.RESTR.norm>
0

>  <SCORE.SYSTEM>
0

>  <SCORE.SYSTEM.CONST>
0

>  <SCORE.SYSTEM.DIHEDRAL>
0

>  <SCORE.SYSTEM.norm>
0

>  <SCORE.heavy>
24

>  <SCORE.norm>
-0.961899

$$$$
design_11
 OpenBabel05252019093D

 24 26  0  0  0  0  0  0  0  0999 V2000
   40.2066  -47.5817    5.8319 C   0  0  0  0  0  0  0  0  0  0  0  0
   40.7534  -46.7868    6.9863 C   0  0  0  0  0  0  0  0  0  0  0  0
   40.0431  -46.6847    8.1615 C   0  0  0  0  0  0  0  0  0  0  0  0
   40.5182  -45.9683    9.2252 C   0  0  0  0  0  0  0  0  0  0  0  0
   41.7500  -45.3120    9.1522 C   0  0  0  0  0  0  0  0  0  0  0  0
   42.4442  -45.4223    7.9785 C   0  0  0  0  0  0  0  0  0  0  0  0
   43.7480  -44.7562    7.8200 C   0  0  0  0  0  0  0  0  0  0  0  0
   44.6562  -45.4775    6.9599 N   0  0  0  0  0  0  0  0  0  0  0  0
   44.8092  -45.0603    5.6269 C   0  0  0  0  0  0  0  0  0  0  0  0
   44.1712  -44.0829    5.1928 O   0  0  0  0  0  0  0  0  0  0  0  0
   45.6921  -45.7481    4.7612 N   0  0  0  0  0  0  0  0  0  0  0  0
   45.9101  -45.3737    3.3951 C   0  0  0  0  0  0  0  0  0  0  0  0
   46.9070  -46.2369    2.7497 C   0  0  0  0  0  0  0  0  0  0  0  0
   48.1082  -46.5726    3.3179 C   0  0  0  0  0  0  0  0  0  0  0  0
   48.9712  -47.4234    2.6431 C   0  0  0  0  0  0  0  0  0  0  0  0
   48.5926  -47.9068    1.4193 C   0  0  0  0  0  0  0  0  0  0  0  0
   47.4096  -47.5676    0.8770 N   0  0  0  0  0  0  0  0  0  0  0  0
   46.5457  -46.7481    1.4944 C   0  0  0  0  0  0  0  0  0  0  0  0
   45.2927  -46.3671    0.9580 N   0  0  0  0  0  0  0  0  0  0  0  0
   44.8643  -46.5361   -0.3184 C   0  0  0  0  0  0  0  0  0  0  0  0
   43.5870  -46.0368   -0.4601 C   0  0  0  0  0  0  0  0  0  0  0  0
   43.2564  -45.5527    0.7991 C   0  0  0  0  0  0  0  0  0  0  0  0
   44.3001  -45.7723    1.6031 N   0  0  0  0  0  0  0  0  0  0  0  0
   41.9671  -46.1492    6.8926 C   0  0  0  0  0  0  0  0  0  0  0  0
  1  2  1  0  0  0  0
  2  3  2  0  0  0  0
  3  4  1  0  0  0  0
  4  5  2  0  0  0  0
  5  6  1  0  0  0  0
  6  7  1  0  0  0  0
  6 24  2  0  0  0  0
  7  8  1  0  0  0  0
  8  9  1  0  0  0  0
  9 10  2  0  0  0  0
  9 11  1  0  0  0  0
 11 12  1  0  0  0  0
 12 13  1  0  0  0  0
 13 14  2  0  0  0  0
 14 15  1  0  0  0  0
 15 16  2  0  0  0  0
 16 17  1  0  0  0  0
 17 18  2  0  0  0  0
 18 19  1  0  0  0  0
 18 13  1  0  0  0  0
 19 20  1  0  0  0  0
 20 21  2  0  0  0  0
 21 22  1  0  0  0  0
 22 23  2  0  0  0  0
 23 19  1  0  0  0  0
 24  2  1  0  0  0  0
M  END
>  <CHROM.1>
147.80683144,100.11205844,178.22825010,-46.53351625,166.66852816,44.35620236
-46.11770252,4.30302652,2.22298061,0.00623260,1.44858017

>  <Name>
design_11

>  <RI>
0

>  <Rbt.Current_Directory>
/home/ziqiaoxu/icml18-jtnn/VAEdesign

>  <Rbt.Executable>
rbdock ($Id: //depot/dev/client3/rdock/2013.1/src/exe/rbdock.cxx#4 $)

>  <Rbt.Library>
libRbt.so (2013.1, Build901 2013/11/27)

>  <Rbt.Parameter_File>
/export/apps/rDock/src/rDock_2013.1_src//data/scripts/dock.prm

>  <Rbt.Receptor>
/home/ziqiaoxu/icml18-jtnn/VAEdesign/targets/RdRp-SARS-CoV-2/pocket_docking.prm

>  <SCORE>
-21.9843

>  <SCORE.INTER>
-20.1439

>  <SCORE.INTER.CONST>
1

>  <SCORE.INTER.POLAR>
-1.67121

>  <SCORE.INTER.REPUL>
0.0721927

>  <SCORE.INTER.ROT>
5

>  <SCORE.INTER.VDW>
-25.2227

>  <SCORE.INTER.norm>
-0.839328

>  <SCORE.INTRA>
-1.84038

>  <SCORE.INTRA.DIHEDRAL>
-12.1088

>  <SCORE.INTRA.DIHEDRAL.0>
16.6192

>  <SCORE.INTRA.POLAR>
0

>  <SCORE.INTRA.POLAR.0>
0

>  <SCORE.INTRA.REPUL>
0

>  <SCORE.INTRA.REPUL.0>
0

>  <SCORE.INTRA.VDW>
4.21404

>  <SCORE.INTRA.VDW.0>
-1.44071

>  <SCORE.INTRA.norm>
-0.0766826

>  <SCORE.RESTR>
0

>  <SCORE.RESTR.CAVITY>
0

>  <SCORE.RESTR.norm>
0

>  <SCORE.SYSTEM>
0

>  <SCORE.SYSTEM.CONST>
0

>  <SCORE.SYSTEM.DIHEDRAL>
0

>  <SCORE.SYSTEM.norm>
0

>  <SCORE.heavy>
24

>  <SCORE.norm>
-0.916011

$$$$
design_15
 OpenBabel05252019093D

 23 24  0  0  0  0  0  0  0  0999 V2000
   39.7942  -36.7667    2.3175 C   0  0  0  0  0  0  0  0  0  0  0  0
   39.6740  -36.4470    3.7290 N   0  0  0  0  0  0  0  0  0  0  0  0
   40.1265  -37.4088    4.6674 C   0  0  0  0  0  0  0  0  0  0  0  0
   40.6189  -38.5084    4.3163 O   0  0  0  0  0  0  0  0  0  0  0  0
   40.0022  -37.0784    6.1231 C   0  0  0  0  0  0  0  0  0  0  0  0
   39.7392  -38.3280    6.8827 C   0  0  0  0  0  0  0  0  0  0  0  0
   40.5705  -38.6221    7.9379 C   0  0  0  0  0  0  0  0  0  0  0  0
   40.3126  -39.7744    8.6234 C   0  0  0  0  0  0  0  0  0  0  0  0
   39.2657  -40.6533    8.3121 C   0  0  0  0  0  0  0  0  0  0  0  0
   39.1031  -41.7701    9.1064 N   0  0  0  0  0  0  0  0  0  0  0  0
   40.0216  -42.8459    9.1550 C   0  0  0  0  0  0  0  0  0  0  0  0
   41.0509  -42.8249    8.4804 O   0  0  0  0  0  0  0  0  0  0  0  0
   39.7701  -43.9844    9.9936 N   0  0  0  0  0  0  0  0  0  0  0  0
   40.7180  -45.0499   10.0191 C   0  0  0  0  0  0  0  0  0  0  0  0
   40.4736  -46.0891    8.9881 C   0  0  0  0  0  0  0  0  0  0  0  0
   39.4045  -46.9633    9.1672 C   0  0  0  0  0  0  0  0  0  0  0  0
   39.1321  -47.9448    8.2374 C   0  0  0  0  0  0  0  0  0  0  0  0
   39.9463  -48.0368    7.1273 C   0  0  0  0  0  0  0  0  0  0  0  0
   39.7018  -48.9871    6.2041 F   0  0  0  0  0  0  0  0  0  0  0  0
   41.0071  -47.1726    6.9457 C   0  0  0  0  0  0  0  0  0  0  0  0
   41.2793  -46.1841    7.8843 C   0  0  0  0  0  0  0  0  0  0  0  0
   38.4665  -40.3225    7.2598 C   0  0  0  0  0  0  0  0  0  0  0  0
   38.7002  -39.1494    6.5329 C   0  0  0  0  0  0  0  0  0  0  0  0
  1  2  1  0  0  0  0
  2  3  1  0  0  0  0
  3  4  2  0  0  0  0
  3  5  1  0  0  0  0
  5  6  1  0  0  0  0
  6  7  2  0  0  0  0
  7  8  1  0  0  0  0
  8  9  2  0  0  0  0
  9 10  1  0  0  0  0
  9 22  1  0  0  0  0
 10 11  1  0  0  0  0
 11 12  2  0  0  0  0
 11 13  1  0  0  0  0
 13 14  1  0  0  0  0
 14 15  1  0  0  0  0
 15 16  2  0  0  0  0
 16 17  1  0  0  0  0
 17 18  2  0  0  0  0
 18 19  1  0  0  0  0
 18 20  1  0  0  0  0
 20 21  2  0  0  0  0
 21 15  1  0  0  0  0
 22 23  2  0  0  0  0
 23  6  1  0  0  0  0
M  END
>  <CHROM.1>
146.88242563,126.41196579,-67.83102530,-88.79683189,-73.38833476,39.95013419
-42.23952530,7.24611034,-2.26234022,-1.53428536,2.14532770

>  <Name>
design_15

>  <RI>
0

>  <Rbt.Current_Directory>
/home/ziqiaoxu/icml18-jtnn/VAEdesign

>  <Rbt.Executable>
rbdock ($Id: //depot/dev/client3/rdock/2013.1/src/exe/rbdock.cxx#4 $)

>  <Rbt.Library>
libRbt.so (2013.1, Build901 2013/11/27)

>  <Rbt.Parameter_File>
/export/apps/rDock/src/rDock_2013.1_src//data/scripts/dock.prm

>  <Rbt.Receptor>
/home/ziqiaoxu/icml18-jtnn/VAEdesign/targets/RdRp-SARS-CoV-2/pocket_docking.prm

>  <SCORE>
-18.3094

>  <SCORE.INTER>
-21.6218

>  <SCORE.INTER.CONST>
1

>  <SCORE.INTER.POLAR>
-2.00023

>  <SCORE.INTER.REPUL>
0

>  <SCORE.INTER.ROT>
5

>  <SCORE.INTER.VDW>
-25.221

>  <SCORE.INTER.norm>
-0.940076

>  <SCORE.INTRA>
3.27679

>  <SCORE.INTRA.DIHEDRAL>
8.72125

>  <SCORE.INTRA.DIHEDRAL.0>
6.09553

>  <SCORE.INTRA.POLAR>
0

>  <SCORE.INTRA.POLAR.0>
0

>  <SCORE.INTRA.REPUL>
0

>  <SCORE.INTRA.REPUL.0>
0

>  <SCORE.INTRA.VDW>
-1.08383

>  <SCORE.INTRA.VDW.0>
-0.738768

>  <SCORE.INTRA.norm>
0.142469

>  <SCORE.RESTR>
0.0355928

>  <SCORE.RESTR.CAVITY>
0.0355928

>  <SCORE.RESTR.norm>
0.00154751

>  <SCORE.SYSTEM>
0

>  <SCORE.SYSTEM.CONST>
0

>  <SCORE.SYSTEM.DIHEDRAL>
0

>  <SCORE.SYSTEM.norm>
0

>  <SCORE.heavy>
23

>  <SCORE.norm>
-0.79606

$$$$
design_15
 OpenBabel05252019093D

 27 29  0  0  0  0  0  0  0  0999 V2000
   41.6450  -45.6501    4.6042 C   0  0  0  0  0  0  0  0  0  0  0  0
   40.7457  -46.3529    5.5659 C   0  0  0  0  0  0  0  0  0  0  0  0
   40.3511  -47.6747    5.3973 C   0  0  0  0  0  0  0  0  0  0  0  0
   39.5374  -47.9779    6.4612 C   0  0  0  0  0  0  0  0  0  0  0  0
   38.8828  -49.2545    6.7153 C   0  0  0  0  0  0  0  0  0  0  0  0
   39.4526  -46.8545    7.2453 N   0  0  0  0  0  0  0  0  0  0  0  0
   38.6668  -46.8531    8.4599 C   0  0  0  0  0  0  0  0  0  0  0  0
   39.3544  -46.3252    9.6381 C   0  0  0  0  0  0  0  0  0  0  0  0
   39.7872  -44.9483    9.8352 C   0  0  0  0  0  0  0  0  0  0  0  0
   41.0176  -44.6385   10.4975 N   0  0  0  0  0  0  0  0  0  0  0  0
   42.3233  -44.6084   10.0683 C   0  0  0  0  0  0  0  0  0  0  0  0
   42.5665  -44.8830    8.8371 O   0  0  0  0  0  0  0  0  0  0  0  0
   43.5080  -44.2921   10.8713 C   0  0  0  0  0  0  0  0  0  0  0  0
   43.3211  -43.9267   12.2240 C   0  0  0  0  0  0  0  0  0  0  0  0
   44.3790  -43.6346   13.0245 C   0  0  0  0  0  0  0  0  0  0  0  0
   45.6529  -43.6863   12.5429 C   0  0  0  0  0  0  0  0  0  0  0  0
   45.8330  -44.0401   11.2329 C   0  0  0  0  0  0  0  0  0  0  0  0
   44.7694  -44.3483   10.3745 C   0  0  0  0  0  0  0  0  0  0  0  0
   45.1170  -44.6830    9.0876 O   0  0  0  0  0  0  0  0  0  0  0  0
   45.6770  -43.7476    8.2235 C   0  0  0  0  0  0  0  0  0  0  0  0
   46.0589  -44.2740    6.9068 C   0  0  0  0  0  0  0  0  0  0  0  0
   47.2098  -43.8652    6.2953 C   0  0  0  0  0  0  0  0  0  0  0  0
   47.5971  -44.3464    5.0445 C   0  0  0  0  0  0  0  0  0  0  0  0
   46.7652  -45.2636    4.4367 C   0  0  0  0  0  0  0  0  0  0  0  0
   45.6272  -45.6786    5.0232 N   0  0  0  0  0  0  0  0  0  0  0  0
   45.2711  -45.2046    6.2261 C   0  0  0  0  0  0  0  0  0  0  0  0
   40.1742  -45.9280    6.6850 N   0  0  0  0  0  0  0  0  0  0  0  0
  1  2  1  0  0  0  0
  2  3  1  0  0  0  0
  3  4  2  0  0  0  0
  4  5  1  0  0  0  0
  4  6  1  0  0  0  0
  6  7  1  0  0  0  0
  6 27  1  0  0  0  0
  7  8  1  0  0  0  0
  8  9  1  0  0  0  0
  9 10  1  0  0  0  0
 10 11  1  0  0  0  0
 11 12  2  0  0  0  0
 11 13  1  0  0  0  0
 13 14  2  0  0  0  0
 14 15  1  0  0  0  0
 15 16  2  0  0  0  0
 16 17  1  0  0  0  0
 17 18  2  0  0  0  0
 18 19  1  0  0  0  0
 18 13  1  0  0  0  0
 19 20  1  0  0  0  0
 20 21  1  0  0  0  0
 21 22  2  0  0  0  0
 22 23  1  0  0  0  0
 23 24  2  0  0  0  0
 24 25  1  0  0  0  0
 25 26  2  0  0  0  0
 26 21  1  0  0  0  0
 27  2  2  0  0  0  0
M  END
>  <CHROM.1>
130.95447455,66.21591923,-142.56429948,81.48411484,-2.53227686,112.83571653
176.93538968,-140.70912295,42.95180978,-45.31394565,8.19539536,-2.77943542
0.35473323,1.28277384

>  <Name>
design_15

>  <RI>
0

>  <Rbt.Current_Directory>
/home/ziqiaoxu/icml18-jtnn/VAEdesign

>  <Rbt.Executable>
rbdock ($Id: //depot/dev/client3/rdock/2013.1/src/exe/rbdock.cxx#4 $)

>  <Rbt.Library>
libRbt.so (2013.1, Build901 2013/11/27)

>  <Rbt.Parameter_File>
/export/apps/rDock/src/rDock_2013.1_src//data/scripts/dock.prm

>  <Rbt.Receptor>
/home/ziqiaoxu/icml18-jtnn/VAEdesign/targets/RdRp-SARS-CoV-2/pocket_docking.prm

>  <SCORE>
-12.2659

>  <SCORE.INTER>
-13.4021

>  <SCORE.INTER.CONST>
1

>  <SCORE.INTER.POLAR>
-0.543869

>  <SCORE.INTER.REPUL>
0.053547

>  <SCORE.INTER.ROT>
8

>  <SCORE.INTER.VDW>
-25.2207

>  <SCORE.INTER.norm>
-0.496376

>  <SCORE.INTRA>
1.13624

>  <SCORE.INTRA.DIHEDRAL>
7.66072

>  <SCORE.INTRA.DIHEDRAL.0>
4.75785

>  <SCORE.INTRA.POLAR>
0.531245

>  <SCORE.INTRA.POLAR.0>
-0.531245

>  <SCORE.INTRA.REPUL>
-0.334427

>  <SCORE.INTRA.REPUL.0>
0.355393

>  <SCORE.INTRA.VDW>
-2.82822

>  <SCORE.INTRA.VDW.0>
0.391206

>  <SCORE.INTRA.norm>
0.0420829

>  <SCORE.RESTR>
0

>  <SCORE.RESTR.CAVITY>
0

>  <SCORE.RESTR.norm>
0

>  <SCORE.SYSTEM>
0

>  <SCORE.SYSTEM.CONST>
0

>  <SCORE.SYSTEM.DIHEDRAL>
0

>  <SCORE.SYSTEM.norm>
0

>  <SCORE.heavy>
27

>  <SCORE.norm>
-0.454293

$$$$
design_17
 OpenBabel05252019093D

 22 23  0  0  0  0  0  0  0  0999 V2000
   47.7086  -47.2759    0.6107 C   0  0  0  0  0  0  0  0  0  0  0  0
   46.2919  -46.8195    0.5698 C   0  0  0  0  0  0  0  0  0  0  0  0
   45.5803  -46.7152   -0.6142 C   0  0  0  0  0  0  0  0  0  0  0  0
   44.2718  -46.2933   -0.6463 C   0  0  0  0  0  0  0  0  0  0  0  0
   43.6675  -45.9688    0.5482 C   0  0  0  0  0  0  0  0  0  0  0  0
   44.3785  -46.0724    1.7365 C   0  0  0  0  0  0  0  0  0  0  0  0
   45.6835  -46.4939    1.7629 C   0  0  0  0  0  0  0  0  0  0  0  0
   46.5778  -46.6249    3.2851 S   0  0  0  0  0  0  0  0  0  0  0  0
   46.3217  -45.1121    4.2445 C   0  0  0  0  0  0  0  0  0  0  0  0
   44.9508  -45.0325    4.8311 C   0  0  0  0  0  0  0  0  0  0  0  0
   44.0997  -44.4555    4.1530 O   0  0  0  0  0  0  0  0  0  0  0  0
   44.7056  -45.5980    6.0828 N   0  0  0  0  0  0  0  0  0  0  0  0
   43.4656  -45.5902    6.7524 C   0  0  0  0  0  0  0  0  0  0  0  0
   42.2522  -45.9777    6.2487 C   0  0  0  0  0  0  0  0  0  0  0  0
   41.0715  -45.9602    6.9642 C   0  0  0  0  0  0  0  0  0  0  0  0
   41.0811  -45.5318    8.2653 C   0  0  0  0  0  0  0  0  0  0  0  0
   39.6019  -45.4963    9.2172 S   0  0  0  0  0  0  0  0  0  0  0  0
   40.0487  -46.1021   10.7942 N   0  0  0  0  0  0  0  0  0  0  0  0
   39.1817  -44.0720    9.3399 O   0  0  0  0  0  0  0  0  0  0  0  0
   38.5185  -46.3242    8.6030 O   0  0  0  0  0  0  0  0  0  0  0  0
   42.2716  -45.1297    8.8250 C   0  0  0  0  0  0  0  0  0  0  0  0
   43.4225  -45.1576    8.0956 C   0  0  0  0  0  0  0  0  0  0  0  0
  1  2  1  0  0  0  0
  2  3  2  0  0  0  0
  3  4  1  0  0  0  0
  4  5  2  0  0  0  0
  5  6  1  0  0  0  0
  6  7  2  0  0  0  0
  7  8  1  0  0  0  0
  7  2  1  0  0  0  0
  8  9  1  0  0  0  0
  9 10  1  0  0  0  0
 10 11  2  0  0  0  0
 10 12  1  0  0  0  0
 12 13  1  0  0  0  0
 13 14  2  0  0  0  0
 14 15  1  0  0  0  0
 15 16  2  0  0  0  0
 16 17  1  0  0  0  0
 16 21  1  0  0  0  0
 17 18  1  0  0  0  0
 17 19  2  0  0  0  0
 17 20  2  0  0  0  0
 21 22  2  0  0  0  0
 22 13  1  0  0  0  0
M  END
>  <CHROM.1>
132.88711963,73.15701181,-91.93025518,51.09576633,137.92278902,172.38856663
43.30417142,-45.82577802,5.23308149,-0.94183367,0.01052971,1.44247992

>  <Name>
design_17

>  <RI>
0

>  <Rbt.Current_Directory>
/home/ziqiaoxu/icml18-jtnn/VAEdesign

>  <Rbt.Executable>
rbdock ($Id: //depot/dev/client3/rdock/2013.1/src/exe/rbdock.cxx#4 $)

>  <Rbt.Library>
libRbt.so (2013.1, Build901 2013/11/27)

>  <Rbt.Parameter_File>
/export/apps/rDock/src/rDock_2013.1_src//data/scripts/dock.prm

>  <Rbt.Receptor>
/home/ziqiaoxu/icml18-jtnn/VAEdesign/targets/RdRp-SARS-CoV-2/pocket_docking.prm

>  <SCORE>
-20.8118

>  <SCORE.INTER>
-24.6299

>  <SCORE.INTER.CONST>
1

>  <SCORE.INTER.POLAR>
-3.1792

>  <SCORE.INTER.REPUL>
0

>  <SCORE.INTER.ROT>
6

>  <SCORE.INTER.VDW>
-25.2207

>  <SCORE.INTER.norm>
-1.11954

>  <SCORE.INTRA>
3.81816

>  <SCORE.INTRA.DIHEDRAL>
7.24753

>  <SCORE.INTRA.DIHEDRAL.0>
5.24023

>  <SCORE.INTRA.POLAR>
0

>  <SCORE.INTRA.POLAR.0>
0

>  <SCORE.INTRA.REPUL>
0

>  <SCORE.INTRA.REPUL.0>
0

>  <SCORE.INTRA.VDW>
0.194397

>  <SCORE.INTRA.VDW.0>
-2.91474

>  <SCORE.INTRA.norm>
0.173553

>  <SCORE.RESTR>
0

>  <SCORE.RESTR.CAVITY>
0

>  <SCORE.RESTR.norm>
0

>  <SCORE.SYSTEM>
0

>  <SCORE.SYSTEM.CONST>
0

>  <SCORE.SYSTEM.DIHEDRAL>
0

>  <SCORE.SYSTEM.norm>
0

>  <SCORE.heavy>
22

>  <SCORE.norm>
-0.945989

$$$$
design_4
 OpenBabel05252019093D

 23 24  0  0  0  0  0  0  0  0999 V2000
   39.3420  -48.7548    6.6899 C   0  0  0  0  0  0  0  0  0  0  0  0
   39.6348  -47.5845    7.5575 C   0  0  0  0  0  0  0  0  0  0  0  0
   40.8536  -46.9353    7.4867 C   0  0  0  0  0  0  0  0  0  0  0  0
   41.1230  -45.8481    8.2957 C   0  0  0  0  0  0  0  0  0  0  0  0
   40.2047  -45.3596    9.2031 C   0  0  0  0  0  0  0  0  0  0  0  0
   40.6383  -43.9531   10.2089 S   0  0  0  0  0  0  0  0  0  0  0  0
   39.4427  -42.6178   10.0476 C   0  0  1  0  0  0  0  0  0  0  0  0
   39.3669  -41.7272   11.2643 C   0  0  0  0  0  0  0  0  0  0  0  0
   39.9078  -41.7760    8.8768 C   0  0  0  0  0  0  0  0  0  0  0  0
   41.1013  -41.8459    8.5859 O   0  0  0  0  0  0  0  0  0  0  0  0
   38.9808  -40.9622    8.1784 N   0  0  0  0  0  0  0  0  0  0  0  0
   39.2275  -40.1288    7.0841 C   0  0  0  0  0  0  0  0  0  0  0  0
   40.5561  -39.9039    6.7138 C   0  0  0  0  0  0  0  0  0  0  0  0
   40.9322  -39.1065    5.6668 C   0  0  0  0  0  0  0  0  0  0  0  0
   39.9625  -38.4867    4.9306 C   0  0  0  0  0  0  0  0  0  0  0  0
   40.3949  -37.4605    3.5825 S   0  0  0  0  0  0  0  0  0  0  0  0
   39.1137  -36.3573    3.2802 N   0  0  0  0  0  0  0  0  0  0  0  0
   40.5660  -38.3498    2.3802 O   0  0  0  0  0  0  0  0  0  0  0  0
   41.6685  -36.7276    3.9143 O   0  0  0  0  0  0  0  0  0  0  0  0
   38.6323  -38.6663    5.2429 C   0  0  0  0  0  0  0  0  0  0  0  0
   38.2962  -39.4856    6.3160 C   0  0  0  0  0  0  0  0  0  0  0  0
   38.9871  -46.0019    9.2790 C   0  0  0  0  0  0  0  0  0  0  0  0
   38.7135  -47.1020    8.4612 C   0  0  0  0  0  0  0  0  0  0  0  0
  1  2  1  0  0  0  0
  2  3  2  0  0  0  0
  3  4  1  0  0  0  0
  4  5  2  0  0  0  0
  5  6  1  0  0  0  0
  5 22  1  0  0  0  0
  6  7  1  0  0  0  0
  7  8  1  1  0  0  0
  7  9  1  0  0  0  0
  9 10  2  0  0  0  0
  9 11  1  0  0  0  0
 11 12  1  0  0  0  0
 12 13  2  0  0  0  0
 13 14  1  0  0  0  0
 14 15  2  0  0  0  0
 15 16  1  0  0  0  0
 15 20  1  0  0  0  0
 16 17  1  0  0  0  0
 16 18  2  0  0  0  0
 16 19  2  0  0  0  0
 20 21  2  0  0  0  0
 21 12  1  0  0  0  0
 22 23  2  0  0  0  0
 23  2  1  0  0  0  0
M  END
>  <CHROM.1>
124.91904392,153.15372876,-23.04492268,-9.43283984,-156.94604224,69.60772271
39.97683527,-41.72040735,7.01079071,-2.21979140,1.52466135,0.12749626

>  <Name>
design_4

>  <RI>
0

>  <Rbt.Current_Directory>
/home/ziqiaoxu/icml18-jtnn/VAEdesign

>  <Rbt.Executable>
rbdock ($Id: //depot/dev/client3/rdock/2013.1/src/exe/rbdock.cxx#4 $)

>  <Rbt.Library>
libRbt.so (2013.1, Build901 2013/11/27)

>  <Rbt.Parameter_File>
/export/apps/rDock/src/rDock_2013.1_src//data/scripts/dock.prm

>  <Rbt.Receptor>
/home/ziqiaoxu/icml18-jtnn/VAEdesign/targets/RdRp-SARS-CoV-2/pocket_docking.prm

>  <SCORE>
-17.9133

>  <SCORE.INTER>
-20.0137

>  <SCORE.INTER.CONST>
1

>  <SCORE.INTER.POLAR>
-1.82268

>  <SCORE.INTER.REPUL>
0.00080266

>  <SCORE.INTER.ROT>
6

>  <SCORE.INTER.VDW>
-25.2206

>  <SCORE.INTER.norm>
-0.870159

>  <SCORE.INTRA>
2.1004

>  <SCORE.INTRA.DIHEDRAL>
1.61916

>  <SCORE.INTRA.DIHEDRAL.0>
4.23938

>  <SCORE.INTRA.POLAR>
0

>  <SCORE.INTRA.POLAR.0>
0

>  <SCORE.INTRA.REPUL>
0

>  <SCORE.INTRA.REPUL.0>
0

>  <SCORE.INTRA.VDW>
1.29081

>  <SCORE.INTRA.VDW.0>
-2.13499

>  <SCORE.INTRA.norm>
0.0913216

>  <SCORE.RESTR>
0

>  <SCORE.RESTR.CAVITY>
0

>  <SCORE.RESTR.norm>
0

>  <SCORE.SYSTEM>
0

>  <SCORE.SYSTEM.CONST>
0

>  <SCORE.SYSTEM.DIHEDRAL>
0

>  <SCORE.SYSTEM.norm>
0

>  <SCORE.heavy>
23

>  <SCORE.norm>
-0.778837

$$$$
design_15
 OpenBabel05252019093D

 23 24  0  0  0  0  0  0  0  0999 V2000
   41.9780  -36.8100    2.8598 C   0  0  0  0  0  0  0  0  0  0  0  0
   40.5871  -37.8729    3.0076 S   0  0  0  0  0  0  0  0  0  0  0  0
   40.7803  -39.0188    2.0412 O   0  0  0  0  0  0  0  0  0  0  0  0
   39.3317  -37.1268    2.6554 O   0  0  0  0  0  0  0  0  0  0  0  0
   40.4948  -38.4667    4.6591 C   0  0  0  0  0  0  0  0  0  0  0  0
   39.5605  -37.9720    5.5482 C   0  0  0  0  0  0  0  0  0  0  0  0
   39.4931  -38.4481    6.8577 C   0  0  0  0  0  0  0  0  0  0  0  0
   40.3562  -39.4257    7.3031 C   0  0  0  0  0  0  0  0  0  0  0  0
   40.3073  -39.9505    8.6895 C   0  0  0  0  0  0  0  0  0  0  0  0
   39.8722  -41.4067    8.7120 C   0  0  0  0  0  0  0  0  0  0  0  0
   39.5566  -41.8276   10.1161 C   0  0  0  0  0  0  0  0  0  0  0  0
   39.5844  -43.2432   10.3311 N   0  0  0  0  0  0  0  0  0  0  0  0
   40.6990  -44.0691   10.0607 C   0  0  0  0  0  0  0  0  0  0  0  0
   41.7809  -43.6054    9.5961 O   0  0  0  0  0  0  0  0  0  0  0  0
   40.5877  -45.5231   10.3330 C   0  0  0  0  0  0  0  0  0  0  0  0
   40.4218  -46.2523    9.0543 C   0  0  0  0  0  0  0  0  0  0  0  0
   41.3822  -46.1297    8.0713 C   0  0  0  0  0  0  0  0  0  0  0  0
   41.2640  -46.7911    6.8700 C   0  0  0  0  0  0  0  0  0  0  0  0
   40.1452  -47.5770    6.6996 C   0  0  0  0  0  0  0  0  0  0  0  0
   39.1767  -47.7070    7.6782 C   0  0  0  0  0  0  0  0  0  0  0  0
   39.3164  -47.0329    8.8780 C   0  0  0  0  0  0  0  0  0  0  0  0
   41.2808  -39.9072    6.4036 C   0  0  0  0  0  0  0  0  0  0  0  0
   41.3533  -39.4430    5.1118 C   0  0  0  0  0  0  0  0  0  0  0  0
  1  2  1  0  0  0  0
  2  3  2  0  0  0  0
  2  4  2  0  0  0  0
  2  5  1  0  0  0  0
  5  6  2  0  0  0  0
  6  7  1  0  0  0  0
  7  8  2  0  0  0  0
  8  9  1  0  0  0  0
  8 22  1  0  0  0  0
  9 10  1  0  0  0  0
 10 11  1  0  0  0  0
 11 12  1  0  0  0  0
 12 13  1  0  0  0  0
 13 14  2  0  0  0  0
 13 15  1  0  0  0  0
 15 16  1  0  0  0  0
 16 17  2  0  0  0  0
 17 18  1  0  0  0  0
 18 19  2  0  0  0  0
 19 20  1  0  0  0  0
 20 21  2  0  0  0  0
 21 16  1  0  0  0  0
 22 23  2  0  0  0  0
 23  5  1  0  0  0  0
M  END
>  <CHROM.1>
104.63006206,113.31734880,-168.28777275,-159.64319821,56.51063222,104.36232264
58.04800810,40.41831361,-41.67000387,6.74807566,-1.29009849,-1.48079979,2.84075066

>  <Name>
design_15

>  <RI>
0

>  <Rbt.Current_Directory>
/home/ziqiaoxu/icml18-jtnn/VAEdesign

>  <Rbt.Executable>
rbdock ($Id: //depot/dev/client3/rdock/2013.1/src/exe/rbdock.cxx#4 $)

>  <Rbt.Library>
libRbt.so (2013.1, Build901 2013/11/27)

>  <Rbt.Parameter_File>
/export/apps/rDock/src/rDock_2013.1_src//data/scripts/dock.prm

>  <Rbt.Receptor>
/home/ziqiaoxu/icml18-jtnn/VAEdesign/targets/RdRp-SARS-CoV-2/pocket_docking.prm

>  <SCORE>
-16.9394

>  <SCORE.INTER>
-17.8765

>  <SCORE.INTER.CONST>
1

>  <SCORE.INTER.POLAR>
-1.51265

>  <SCORE.INTER.REPUL>
0.0172558

>  <SCORE.INTER.ROT>
7

>  <SCORE.INTER.VDW>
-25.2198

>  <SCORE.INTER.norm>
-0.777238

>  <SCORE.INTRA>
0.937059

>  <SCORE.INTRA.DIHEDRAL>
1.92752

>  <SCORE.INTRA.DIHEDRAL.0>
5.176

>  <SCORE.INTRA.POLAR>
0

>  <SCORE.INTRA.POLAR.0>
0

>  <SCORE.INTRA.REPUL>
0

>  <SCORE.INTRA.REPUL.0>
0

>  <SCORE.INTRA.VDW>
-0.0267032

>  <SCORE.INTRA.VDW.0>
-1.59551

>  <SCORE.INTRA.norm>
0.0407417

>  <SCORE.RESTR>
0

>  <SCORE.RESTR.CAVITY>
0

>  <SCORE.RESTR.norm>
0

>  <SCORE.SYSTEM>
0

>  <SCORE.SYSTEM.CONST>
0

>  <SCORE.SYSTEM.DIHEDRAL>
0

>  <SCORE.SYSTEM.norm>
0

>  <SCORE.heavy>
23

>  <SCORE.norm>
-0.736497

$$$$
design_4
 OpenBabel05252019093D

 22 23  0  0  0  0  0  0  0  0999 V2000
   44.9730  -42.7872   14.2163 C   0  0  0  0  0  0  0  0  0  0  0  0
   45.4115  -43.6974   13.1280 C   0  0  0  0  0  0  0  0  0  0  0  0
   46.3195  -44.6802   13.4211 C   0  0  0  0  0  0  0  0  0  0  0  0
   46.6895  -45.4950   12.3710 C   0  0  0  0  0  0  0  0  0  0  0  0
   46.1828  -45.3427   11.0889 C   0  0  0  0  0  0  0  0  0  0  0  0
   45.2774  -44.3452   10.8448 C   0  0  0  0  0  0  0  0  0  0  0  0
   44.6924  -44.0953    9.5468 C   0  0  0  0  0  0  0  0  0  0  0  0
   43.8918  -43.1540    9.3885 O   0  0  0  0  0  0  0  0  0  0  0  0
   45.0094  -44.8989    8.4435 N   0  0  0  0  0  0  0  0  0  0  0  0
   44.4507  -44.6915    7.1231 C   0  0  0  0  0  0  0  0  0  0  0  0
   43.1828  -45.4721    7.0068 C   0  0  0  0  0  0  0  0  0  0  0  0
   42.9467  -45.9872    5.9086 O   0  0  0  0  0  0  0  0  0  0  0  0
   42.3109  -45.6053    8.1014 N   0  0  0  0  0  0  0  0  0  0  0  0
   41.0794  -46.3023    8.1676 C   0  0  0  0  0  0  0  0  0  0  0  0
   40.6759  -47.2687    7.2659 C   0  0  0  0  0  0  0  0  0  0  0  0
   39.4416  -47.9183    7.3946 C   0  0  0  0  0  0  0  0  0  0  0  0
   39.0638  -48.9472    6.3953 C   0  0  0  0  0  0  0  0  0  0  0  0
   38.6501  -47.5527    8.4561 C   0  0  0  0  0  0  0  0  0  0  0  0
   39.0374  -46.5926    9.3624 C   0  0  0  0  0  0  0  0  0  0  0  0
   40.2450  -45.9553    9.2385 C   0  0  0  0  0  0  0  0  0  0  0  0
   40.6440  -44.9231   10.2247 C   0  0  0  0  0  0  0  0  0  0  0  0
   44.8762  -43.4981   11.8816 C   0  0  0  0  0  0  0  0  0  0  0  0
  1  2  1  0  0  0  0
  2  3  2  0  0  0  0
  3  4  1  0  0  0  0
  4  5  2  0  0  0  0
  5  6  1  0  0  0  0
  6  7  1  0  0  0  0
  6 22  2  0  0  0  0
  7  8  2  0  0  0  0
  7  9  1  0  0  0  0
  9 10  1  0  0  0  0
 10 11  1  0  0  0  0
 11 12  2  0  0  0  0
 11 13  1  0  0  0  0
 13 14  1  0  0  0  0
 14 15  2  0  0  0  0
 15 16  1  0  0  0  0
 16 17  1  0  0  0  0
 16 18  2  0  0  0  0
 18 19  1  0  0  0  0
 19 20  2  0  0  0  0
 20 21  1  0  0  0  0
 20 14  1  0  0  0  0
 22  2  1  0  0  0  0
M  END
>  <CHROM.1>
-178.68712739,-89.39262154,-143.39574227,17.81917722,42.96030108,-45.40108413
9.46034450,0.72387802,0.36443257,1.36324959

>  <Name>
design_4

>  <RI>
0

>  <Rbt.Current_Directory>
/home/ziqiaoxu/icml18-jtnn/VAEdesign

>  <Rbt.Executable>
rbdock ($Id: //depot/dev/client3/rdock/2013.1/src/exe/rbdock.cxx#4 $)

>  <Rbt.Library>
libRbt.so (2013.1, Build901 2013/11/27)

>  <Rbt.Parameter_File>
/export/apps/rDock/src/rDock_2013.1_src//data/scripts/dock.prm

>  <Rbt.Receptor>
/home/ziqiaoxu/icml18-jtnn/VAEdesign/targets/RdRp-SARS-CoV-2/pocket_docking.prm

>  <SCORE>
-20.999

>  <SCORE.INTER>
-19.5457

>  <SCORE.INTER.CONST>
1

>  <SCORE.INTER.POLAR>
-1.09586

>  <SCORE.INTER.REPUL>
0

>  <SCORE.INTER.ROT>
4

>  <SCORE.INTER.VDW>
-25.2198

>  <SCORE.INTER.norm>
-0.888441

>  <SCORE.INTRA>
-1.45331

>  <SCORE.INTRA.DIHEDRAL>
0.743485

>  <SCORE.INTRA.DIHEDRAL.0>
3.00101

>  <SCORE.INTRA.POLAR>
0

>  <SCORE.INTRA.POLAR.0>
0

>  <SCORE.INTRA.REPUL>
0

>  <SCORE.INTRA.REPUL.0>
0

>  <SCORE.INTRA.VDW>
-1.82505

>  <SCORE.INTRA.VDW.0>
2.27585

>  <SCORE.INTRA.norm>
-0.0660594

>  <SCORE.RESTR>
0

>  <SCORE.RESTR.CAVITY>
0

>  <SCORE.RESTR.norm>
0

>  <SCORE.SYSTEM>
0

>  <SCORE.SYSTEM.CONST>
0

>  <SCORE.SYSTEM.DIHEDRAL>
0

>  <SCORE.SYSTEM.norm>
0

>  <SCORE.heavy>
22

>  <SCORE.norm>
-0.9545

$$$$
design_3
 OpenBabel05252019093D

 24 26  0  0  0  0  0  0  0  0999 V2000
   44.5199  -45.0495   14.5270 C   0  0  0  0  0  0  0  0  0  0  0  0
   45.4119  -45.1508   13.3246 C   0  0  0  0  0  0  0  0  0  0  0  0
   45.4497  -46.0789   12.3820 N   0  0  0  0  0  0  0  0  0  0  0  0
   46.4180  -45.7265   11.5226 N   0  0  0  0  0  0  0  0  0  0  0  0
   46.9857  -44.5914   11.9152 C   0  0  0  0  0  0  0  0  0  0  0  0
   48.0828  -43.7694   11.3538 C   0  0  0  0  0  0  0  0  0  0  0  0
   47.6969  -42.9186   10.1987 C   0  0  0  0  0  0  0  0  0  0  0  0
   46.8839  -43.6271    9.2610 N   0  0  0  0  0  0  0  0  0  0  0  0
   45.4743  -43.7010    9.2961 C   0  0  0  0  0  0  0  0  0  0  0  0
   44.8321  -43.1135   10.2091 O   0  0  0  0  0  0  0  0  0  0  0  0
   44.7003  -44.4389    8.3080 C   0  0  0  0  0  0  0  0  0  0  0  0
   45.1951  -44.7070    7.0571 C   0  0  0  0  0  0  0  0  0  0  0  0
   44.4016  -45.4169    6.1468 C   0  0  0  0  0  0  0  0  0  0  0  0
   43.1405  -45.8351    6.5174 C   0  0  0  0  0  0  0  0  0  0  0  0
   42.6183  -45.5795    7.7679 C   0  0  0  0  0  0  0  0  0  0  0  0
   41.2813  -46.0402    8.1172 C   0  0  0  0  0  0  0  0  0  0  0  0
   40.5699  -46.9790    7.3957 C   0  0  0  0  0  0  0  0  0  0  0  0
   39.3016  -47.3857    7.7673 C   0  0  0  0  0  0  0  0  0  0  0  0
   38.6945  -46.8607    8.8870 C   0  0  0  0  0  0  0  0  0  0  0  0
   37.4536  -47.2199    9.3014 F   0  0  0  0  0  0  0  0  0  0  0  0
   39.3851  -45.9159    9.6311 C   0  0  0  0  0  0  0  0  0  0  0  0
   40.6575  -45.5252    9.2357 C   0  0  0  0  0  0  0  0  0  0  0  0
   43.4217  -44.8811    8.6372 C   0  0  0  0  0  0  0  0  0  0  0  0
   46.3489  -44.2289   13.0536 N   0  0  0  0  0  0  0  0  0  0  0  0
  1  2  1  0  0  0  0
  2  3  2  0  0  0  0
  3  4  1  0  0  0  0
  4  5  1  0  0  0  0
  5  6  1  0  0  0  0
  5 24  2  0  0  0  0
  6  7  1  0  0  0  0
  7  8  1  0  0  0  0
  8  9  1  0  0  0  0
  9 10  2  0  0  0  0
  9 11  1  0  0  0  0
 11 12  2  0  0  0  0
 12 13  1  0  0  0  0
 13 14  2  0  0  0  0
 14 15  1  0  0  0  0
 15 16  1  0  0  0  0
 15 23  2  0  0  0  0
 16 17  2  0  0  0  0
 17 18  1  0  0  0  0
 18 19  2  0  0  0  0
 19 20  1  0  0  0  0
 19 21  1  0  0  0  0
 21 22  2  0  0  0  0
 22 16  1  0  0  0  0
 23 11  1  0  0  0  0
 24  2  1  0  0  0  0
M  END
>  <CHROM.1>
78.18426619,-44.05675966,89.55114978,-23.35881088,14.78292338,43.68580665
-45.19981617,9.71716056,0.37340797,0.35516207,1.63761535

>  <Name>
design_3

>  <RI>
0

>  <Rbt.Current_Directory>
/home/ziqiaoxu/icml18-jtnn/VAEdesign

>  <Rbt.Executable>
rbdock ($Id: //depot/dev/client3/rdock/2013.1/src/exe/rbdock.cxx#4 $)

>  <Rbt.Library>
libRbt.so (2013.1, Build901 2013/11/27)

>  <Rbt.Parameter_File>
/export/apps/rDock/src/rDock_2013.1_src//data/scripts/dock.prm

>  <Rbt.Receptor>
/home/ziqiaoxu/icml18-jtnn/VAEdesign/targets/RdRp-SARS-CoV-2/pocket_docking.prm

>  <SCORE>
-20.2179

>  <SCORE.INTER>
-19.8568

>  <SCORE.INTER.CONST>
1

>  <SCORE.INTER.POLAR>
-1.48182

>  <SCORE.INTER.REPUL>
0

>  <SCORE.INTER.ROT>
5

>  <SCORE.INTER.VDW>
-25.2186

>  <SCORE.INTER.norm>
-0.827366

>  <SCORE.INTRA>
-0.361156

>  <SCORE.INTRA.DIHEDRAL>
1.30095

>  <SCORE.INTRA.DIHEDRAL.0>
4.4608

>  <SCORE.INTRA.POLAR>
0

>  <SCORE.INTRA.POLAR.0>
0

>  <SCORE.INTRA.REPUL>
0

>  <SCORE.INTRA.REPUL.0>
0

>  <SCORE.INTRA.VDW>
-1.01163

>  <SCORE.INTRA.VDW.0>
-0.77593

>  <SCORE.INTRA.norm>
-0.0150482

>  <SCORE.RESTR>
0

>  <SCORE.RESTR.CAVITY>
0

>  <SCORE.RESTR.norm>
0

>  <SCORE.SYSTEM>
0

>  <SCORE.SYSTEM.CONST>
0

>  <SCORE.SYSTEM.DIHEDRAL>
0

>  <SCORE.SYSTEM.norm>
0

>  <SCORE.heavy>
24

>  <SCORE.norm>
-0.842414

$$$$
design_6
 OpenBabel05252019093D

 22 24  0  0  0  0  0  0  0  0999 V2000
   47.5404  -46.7960    1.3095 C   0  0  0  0  0  0  0  0  0  0  0  0
   46.1332  -46.5175    0.9383 C   0  0  0  0  0  0  0  0  0  0  0  0
   45.7008  -46.7085   -0.3560 C   0  0  0  0  0  0  0  0  0  0  0  0
   44.4044  -46.4646   -0.7521 C   0  0  0  0  0  0  0  0  0  0  0  0
   43.4926  -46.0104    0.1755 C   0  0  0  0  0  0  0  0  0  0  0  0
   43.9056  -45.8170    1.4584 C   0  0  0  0  0  0  0  0  0  0  0  0
   45.2228  -46.0638    1.8648 C   0  0  0  0  0  0  0  0  0  0  0  0
   45.5980  -45.8329    3.2655 C   0  0  0  0  0  0  0  0  0  0  0  0
   46.8165  -45.8737    3.8137 N   0  0  0  0  0  0  0  0  0  0  0  0
   46.6744  -45.6038    5.0912 N   0  0  0  0  0  0  0  0  0  0  0  0
   45.4176  -45.3942    5.3734 N   0  0  0  0  0  0  0  0  0  0  0  0
   44.7681  -45.0684    6.6198 C   0  0  0  0  0  0  0  0  0  0  0  0
   43.4455  -45.7293    6.7915 C   0  0  0  0  0  0  0  0  0  0  0  0
   42.8388  -45.3478    8.0330 O   0  0  0  0  0  0  0  0  0  0  0  0
   41.6065  -45.8481    8.4157 C   0  0  0  0  0  0  0  0  0  0  0  0
   40.9030  -46.7316    7.6572 C   0  0  0  0  0  0  0  0  0  0  0  0
   39.6815  -47.2002    8.0808 C   0  0  0  0  0  0  0  0  0  0  0  0
   39.1564  -46.7849    9.2705 C   0  0  0  0  0  0  0  0  0  0  0  0
   39.8548  -45.8949   10.0444 C   0  0  0  0  0  0  0  0  0  0  0  0
   41.0907  -45.4191    9.6186 C   0  0  0  0  0  0  0  0  0  0  0  0
   41.9615  -44.2888   10.6173 Cl  0  0  0  0  0  0  0  0  0  0  0  0
   44.7424  -45.5341    4.2475 N   0  0  0  0  0  0  0  0  0  0  0  0
  1  2  1  0  0  0  0
  2  3  2  0  0  0  0
  3  4  1  0  0  0  0
  4  5  2  0  0  0  0
  5  6  1  0  0  0  0
  6  7  2  0  0  0  0
  7  8  1  0  0  0  0
  7  2  1  0  0  0  0
  8  9  1  0  0  0  0
  9 10  2  0  0  0  0
 10 11  1  0  0  0  0
 11 12  1  0  0  0  0
 11 22  1  0  0  0  0
 12 13  1  0  0  0  0
 13 14  1  0  0  0  0
 14 15  1  0  0  0  0
 15 16  2  0  0  0  0
 16 17  1  0  0  0  0
 17 18  2  0  0  0  0
 18 19  1  0  0  0  0
 19 20  2  0  0  0  0
 20 21  1  0  0  0  0
 20 15  1  0  0  0  0
 22  8  2  0  0  0  0
M  END
>  <CHROM.1>
7.61218564,-142.30268524,-178.86793575,-179.41454763,0.59734766,43.60085461
-45.82486290,5.47989671,-1.05335412,0.24601048,1.34656385

>  <Name>
design_6

>  <RI>
0

>  <Rbt.Current_Directory>
/home/ziqiaoxu/icml18-jtnn/VAEdesign

>  <Rbt.Executable>
rbdock ($Id: //depot/dev/client3/rdock/2013.1/src/exe/rbdock.cxx#4 $)

>  <Rbt.Library>
libRbt.so (2013.1, Build901 2013/11/27)

>  <Rbt.Parameter_File>
/export/apps/rDock/src/rDock_2013.1_src//data/scripts/dock.prm

>  <Rbt.Receptor>
/home/ziqiaoxu/icml18-jtnn/VAEdesign/targets/RdRp-SARS-CoV-2/pocket_docking.prm

>  <SCORE>
-13.8924

>  <SCORE.INTER>
-14.8179

>  <SCORE.INTER.CONST>
1

>  <SCORE.INTER.POLAR>
0

>  <SCORE.INTER.REPUL>
0

>  <SCORE.INTER.ROT>
5

>  <SCORE.INTER.VDW>
-25.2179

>  <SCORE.INTER.norm>
-0.67354

>  <SCORE.INTRA>
0.925438

>  <SCORE.INTRA.DIHEDRAL>
0.231351

>  <SCORE.INTRA.DIHEDRAL.0>
2.39992

>  <SCORE.INTRA.POLAR>
0

>  <SCORE.INTRA.POLAR.0>
0

>  <SCORE.INTRA.REPUL>
0

>  <SCORE.INTRA.REPUL.0>
0

>  <SCORE.INTRA.VDW>
0.809763

>  <SCORE.INTRA.VDW.0>
0.404675

>  <SCORE.INTRA.norm>
0.0420654

>  <SCORE.RESTR>
0

>  <SCORE.RESTR.CAVITY>
0

>  <SCORE.RESTR.norm>
0

>  <SCORE.SYSTEM>
0

>  <SCORE.SYSTEM.CONST>
0

>  <SCORE.SYSTEM.DIHEDRAL>
0

>  <SCORE.SYSTEM.norm>
0

>  <SCORE.heavy>
22

>  <SCORE.norm>
-0.631474

$$$$
design_10
 OpenBabel05252019093D

 25 26  0  0  0  0  0  0  0  0999 V2000
   40.5650  -46.7699    7.2454 C   0  0  0  0  0  0  0  0  0  0  0  0
   41.7590  -45.9292    7.6484 C   0  0  0  0  0  0  0  0  0  0  0  0
   42.9215  -46.1033    6.8830 C   0  0  0  0  0  0  0  0  0  0  0  0
   44.0398  -45.3138    7.2216 C   0  0  0  0  0  0  0  0  0  0  0  0
   43.8830  -44.4510    8.2672 C   0  0  0  0  0  0  0  0  0  0  0  0
   42.7777  -44.2875    9.0195 C   0  0  0  0  0  0  0  0  0  0  0  0
   41.6519  -45.1029    8.6463 C   0  0  0  0  0  0  0  0  0  0  0  0
   40.4483  -45.0116    9.5882 C   0  0  0  0  0  0  0  0  0  0  0  0
   40.0961  -46.1837    9.9768 O   0  0  0  0  0  0  0  0  0  0  0  0
   39.9496  -43.9435    9.8606 N   0  0  0  0  0  0  0  0  0  0  0  0
   39.2906  -42.5723   10.2215 C   0  0  0  0  0  0  0  0  0  0  0  0
   40.1164  -41.7143    9.2992 C   0  0  0  0  0  0  0  0  0  0  0  0
   40.1483  -40.2655    9.4437 N   0  0  0  0  0  0  0  0  0  0  0  0
   40.2060  -39.5974    8.1956 C   0  0  0  0  0  0  0  0  0  0  0  0
   40.2881  -40.5572    7.2275 O   0  0  0  0  0  0  0  0  0  0  0  0
   40.1888  -38.3445    7.6580 N   0  0  0  0  0  0  0  0  0  0  0  0
   40.2872  -38.1481    6.2161 C   0  0  0  0  0  0  0  0  0  0  0  0
   39.5683  -37.1623    5.5895 C   0  0  0  0  0  0  0  0  0  0  0  0
   39.4888  -36.9783    4.2223 C   0  0  0  0  0  0  0  0  0  0  0  0
   40.2246  -37.8670    3.4272 C   0  0  0  0  0  0  0  0  0  0  0  0
   40.9938  -38.8901    4.0011 C   0  0  0  0  0  0  0  0  0  0  0  0
   41.9108  -39.6750    3.2303 C   0  0  0  0  0  0  0  0  0  0  0  0
   41.3039  -39.6205    1.7888 N   0  0  0  0  0  0  0  0  0  0  0  0
   42.8759  -40.2948    3.2804 O   0  0  0  0  0  0  0  0  0  0  0  0
   40.9677  -38.9735    5.4217 C   0  0  0  0  0  0  0  0  0  0  0  0
  1  2  1  0  0  0  0
  2  3  2  0  0  0  0
  3  4  1  0  0  0  0
  4  5  2  0  0  0  0
  5  6  1  0  0  0  0
  6  7  2  0  0  0  0
  7  8  1  0  0  0  0
  7  2  1  0  0  0  0
  8  9  2  0  0  0  0
  8 10  1  0  0  0  0
 10 11  1  0  0  0  0
 11 12  1  0  0  0  0
 12 13  1  0  0  0  0
 13 14  1  0  0  0  0
 14 15  2  0  0  0  0
 14 16  1  0  0  0  0
 16 17  1  0  0  0  0
 17 18  2  0  0  0  0
 18 19  1  0  0  0  0
 19 20  2  0  0  0  0
 20 21  1  0  0  0  0
 21 22  1  0  0  0  0
 21 25  2  0  0  0  0
 22 23  1  0  0  0  0
 22 24  2  0  0  0  0
 25 17  1  0  0  0  0
M  END
>  <CHROM.1>
46.82879736,-166.82093083,-165.18037014,-143.12018287,142.43103930,-26.88293409
41.01000831,-41.76077586,6.95616960,-1.38814767,1.02010246,-0.72319533

>  <Name>
design_10

>  <RI>
0

>  <Rbt.Current_Directory>
/home/ziqiaoxu/icml18-jtnn/VAEdesign

>  <Rbt.Executable>
rbdock ($Id: //depot/dev/client3/rdock/2013.1/src/exe/rbdock.cxx#4 $)

>  <Rbt.Library>
libRbt.so (2013.1, Build901 2013/11/27)

>  <Rbt.Parameter_File>
/export/apps/rDock/src/rDock_2013.1_src//data/scripts/dock.prm

>  <Rbt.Receptor>
/home/ziqiaoxu/icml18-jtnn/VAEdesign/targets/RdRp-SARS-CoV-2/pocket_docking.prm

>  <SCORE>
-29.1641

>  <SCORE.INTER>
-24.9371

>  <SCORE.INTER.CONST>
1

>  <SCORE.INTER.POLAR>
-3.27216

>  <SCORE.INTER.REPUL>
0.00116267

>  <SCORE.INTER.ROT>
6

>  <SCORE.INTER.VDW>
-25.2175

>  <SCORE.INTER.norm>
-0.997483

>  <SCORE.INTRA>
-4.22701

>  <SCORE.INTRA.DIHEDRAL>
-4.03742

>  <SCORE.INTRA.DIHEDRAL.0>
20.0184

>  <SCORE.INTRA.POLAR>
0

>  <SCORE.INTRA.POLAR.0>
0

>  <SCORE.INTRA.REPUL>
0

>  <SCORE.INTRA.REPUL.0>
0

>  <SCORE.INTRA.VDW>
-2.2083

>  <SCORE.INTRA.VDW.0>
3.50305

>  <SCORE.INTRA.norm>
-0.16908

>  <SCORE.RESTR>
0

>  <SCORE.RESTR.CAVITY>
0

>  <SCORE.RESTR.norm>
0

>  <SCORE.SYSTEM>
0

>  <SCORE.SYSTEM.CONST>
0

>  <SCORE.SYSTEM.DIHEDRAL>
0

>  <SCORE.SYSTEM.norm>
0

>  <SCORE.heavy>
25

>  <SCORE.norm>
-1.16656

$$$$
design_5
 OpenBabel05252019093D

 22 23  0  0  0  0  0  0  0  0999 V2000
   39.3487  -48.8024    6.4351 C   0  0  0  0  0  0  0  0  0  0  0  0
   39.7320  -47.7895    7.4402 C   0  0  0  0  0  0  0  0  0  0  0  0
   38.9691  -47.5713    8.5693 C   0  0  0  0  0  0  0  0  0  0  0  0
   39.3230  -46.6300    9.5066 C   0  0  0  0  0  0  0  0  0  0  0  0
   40.4788  -45.8452    9.3590 C   0  0  0  0  0  0  0  0  0  0  0  0
   41.2415  -46.0498    8.2505 C   0  0  0  0  0  0  0  0  0  0  0  0
   42.4379  -45.3346    8.0062 N   0  0  0  0  0  0  0  0  0  0  0  0
   43.0731  -44.3903    8.8153 C   0  0  0  0  0  0  0  0  0  0  0  0
   42.5581  -44.0908    9.9510 O   0  0  0  0  0  0  0  0  0  0  0  0
   44.3179  -43.6687    8.5018 C   0  0  0  0  0  0  0  0  0  0  0  0
   45.5189  -44.2243    9.0308 N   0  0  0  0  0  0  0  0  0  0  0  0
   46.2428  -43.4797   10.0152 C   0  0  0  0  0  0  0  0  0  0  0  0
   45.8495  -42.3612   10.4195 O   0  0  0  0  0  0  0  0  0  0  0  0
   47.4881  -44.0613   10.5604 C   0  0  0  0  0  0  0  0  0  0  0  0
   47.1326  -45.5674   11.4948 S   0  0  0  0  0  0  0  0  0  0  0  0
   46.0900  -45.1713   12.8930 C   0  0  0  0  0  0  0  0  0  0  0  0
   46.5441  -44.3358   13.8737 N   0  0  0  0  0  0  0  0  0  0  0  0
   45.8088  -44.0036   14.9485 C   0  0  0  0  0  0  0  0  0  0  0  0
   44.5349  -44.5281   15.0727 C   0  0  0  0  0  0  0  0  0  0  0  0
   44.0716  -45.3718   14.0863 C   0  0  0  0  0  0  0  0  0  0  0  0
   44.8495  -45.6697   13.0336 N   0  0  0  0  0  0  0  0  0  0  0  0
   40.8556  -47.0221    7.3037 C   0  0  0  0  0  0  0  0  0  0  0  0
  1  2  1  0  0  0  0
  2  3  2  0  0  0  0
  3  4  1  0  0  0  0
  4  5  2  0  0  0  0
  5  6  1  0  0  0  0
  6  7  1  0  0  0  0
  6 22  2  0  0  0  0
  7  8  1  0  0  0  0
  8  9  2  0  0  0  0
  8 10  1  0  0  0  0
 10 11  1  0  0  0  0
 11 12  1  0  0  0  0
 12 13  2  0  0  0  0
 12 14  1  0  0  0  0
 14 15  1  0  0  0  0
 15 16  1  0  0  0  0
 16 17  2  0  0  0  0
 17 18  1  0  0  0  0
 18 19  2  0  0  0  0
 19 20  1  0  0  0  0
 20 21  2  0  0  0  0
 21 16  1  0  0  0  0
 22  2  1  0  0  0  0
M  END
>  <CHROM.1>
3.19513814,-95.77401415,-114.33214305,-65.23082844,-62.46600785,-62.83853029
43.72495220,-45.25807896,10.38636448,2.56656532,-0.47994691,-1.45073679

>  <Name>
design_5

>  <RI>
0

>  <Rbt.Current_Directory>
/home/ziqiaoxu/icml18-jtnn/VAEdesign

>  <Rbt.Executable>
rbdock ($Id: //depot/dev/client3/rdock/2013.1/src/exe/rbdock.cxx#4 $)

>  <Rbt.Library>
libRbt.so (2013.1, Build901 2013/11/27)

>  <Rbt.Parameter_File>
/export/apps/rDock/src/rDock_2013.1_src//data/scripts/dock.prm

>  <Rbt.Receptor>
/home/ziqiaoxu/icml18-jtnn/VAEdesign/targets/RdRp-SARS-CoV-2/pocket_docking.prm

>  <SCORE>
-19.9252

>  <SCORE.INTER>
-17.9911

>  <SCORE.INTER.CONST>
1

>  <SCORE.INTER.POLAR>
-1.2291

>  <SCORE.INTER.REPUL>
0.000970688

>  <SCORE.INTER.ROT>
6

>  <SCORE.INTER.VDW>
-25.217

>  <SCORE.INTER.norm>
-0.817776

>  <SCORE.INTRA>
-1.9341

>  <SCORE.INTRA.DIHEDRAL>
-1.35682

>  <SCORE.INTRA.DIHEDRAL.0>
7.29632

>  <SCORE.INTRA.POLAR>
0

>  <SCORE.INTRA.POLAR.0>
0

>  <SCORE.INTRA.REPUL>
0

>  <SCORE.INTRA.REPUL.0>
0

>  <SCORE.INTRA.VDW>
-1.2557

>  <SCORE.INTRA.VDW.0>
-0.911418

>  <SCORE.INTRA.norm>
-0.0879138

>  <SCORE.RESTR>
0

>  <SCORE.RESTR.CAVITY>
0

>  <SCORE.RESTR.norm>
0

>  <SCORE.SYSTEM>
0

>  <SCORE.SYSTEM.CONST>
0

>  <SCORE.SYSTEM.DIHEDRAL>
0

>  <SCORE.SYSTEM.norm>
0

>  <SCORE.heavy>
22

>  <SCORE.norm>
-0.90569

$$$$
design_12
 OpenBabel05252019093D

 24 25  0  0  0  0  0  0  0  0999 V2000
   44.3128  -46.3591   -0.6357 C   0  0  0  0  0  0  0  0  0  0  0  0
   44.3144  -45.6294    0.6551 C   0  0  0  0  0  0  0  0  0  0  0  0
   43.5413  -44.6685    0.8624 O   0  0  0  0  0  0  0  0  0  0  0  0
   45.2366  -46.0369    1.7108 C   0  0  0  0  0  0  0  0  0  0  0  0
   46.3446  -46.7984    1.3821 C   0  0  0  0  0  0  0  0  0  0  0  0
   47.2065  -47.1765    2.3793 C   0  0  0  0  0  0  0  0  0  0  0  0
   46.9483  -46.7854    3.7053 C   0  0  0  0  0  0  0  0  0  0  0  0
   45.8665  -46.0357    4.0652 C   0  0  0  0  0  0  0  0  0  0  0  0
   45.5627  -45.6350    5.3836 N   0  0  0  0  0  0  0  0  0  0  0  0
   44.8720  -44.4964    5.8148 C   0  0  0  0  0  0  0  0  0  0  0  0
   44.4247  -43.6547    5.0257 O   0  0  0  0  0  0  0  0  0  0  0  0
   44.6638  -44.2830    7.2662 C   0  0  0  0  0  0  0  0  0  0  0  0
   43.1844  -44.2210    7.6434 C   0  0  0  0  0  0  0  0  0  0  0  0
   42.4821  -45.4596    7.3430 C   0  0  0  0  0  0  0  0  0  0  0  0
   43.0072  -46.1352    6.3676 O   0  0  0  0  0  0  0  0  0  0  0  0
   41.3120  -46.0441    7.9459 C   0  0  0  0  0  0  0  0  0  0  0  0
   40.7117  -47.1119    7.2603 C   0  0  0  0  0  0  0  0  0  0  0  0
   39.5842  -47.7350    7.7253 C   0  0  0  0  0  0  0  0  0  0  0  0
   38.9712  -48.8799    6.9530 C   0  0  0  0  0  0  0  0  0  0  0  0
   39.0162  -47.3081    8.8988 C   0  0  0  0  0  0  0  0  0  0  0  0
   39.5773  -46.2680    9.5936 C   0  0  0  0  0  0  0  0  0  0  0  0
   40.7212  -45.6364    9.1214 C   0  0  0  0  0  0  0  0  0  0  0  0
   41.2794  -44.5347    9.9209 C   0  0  0  0  0  0  0  0  0  0  0  0
   45.0088  -45.6688    3.0179 C   0  0  0  0  0  0  0  0  0  0  0  0
  1  2  1  0  0  0  0
  2  3  2  0  0  0  0
  2  4  1  0  0  0  0
  4  5  2  0  0  0  0
  5  6  1  0  0  0  0
  6  7  2  0  0  0  0
  7  8  1  0  0  0  0
  8  9  1  0  0  0  0
  8 24  2  0  0  0  0
  9 10  1  0  0  0  0
 10 11  2  0  0  0  0
 10 12  1  0  0  0  0
 12 13  1  0  0  0  0
 13 14  1  0  0  0  0
 14 15  2  0  0  0  0
 14 16  1  0  0  0  0
 16 17  2  0  0  0  0
 17 18  1  0  0  0  0
 18 19  1  0  0  0  0
 18 20  2  0  0  0  0
 20 21  1  0  0  0  0
 21 22  2  0  0  0  0
 22 23  1  0  0  0  0
 22 16  1  0  0  0  0
 24  4  1  0  0  0  0
M  END
>  <CHROM.1>
19.31005518,151.30807520,-119.71769280,61.79275422,-27.18881799,167.28617029
43.25959735,-45.91238901,5.36747323,0.83216020,-0.48331334,-1.91225681

>  <Name>
design_12

>  <RI>
0

>  <Rbt.Current_Directory>
/home/ziqiaoxu/icml18-jtnn/VAEdesign

>  <Rbt.Executable>
rbdock ($Id: //depot/dev/client3/rdock/2013.1/src/exe/rbdock.cxx#4 $)

>  <Rbt.Library>
libRbt.so (2013.1, Build901 2013/11/27)

>  <Rbt.Parameter_File>
/export/apps/rDock/src/rDock_2013.1_src//data/scripts/dock.prm

>  <Rbt.Receptor>
/home/ziqiaoxu/icml18-jtnn/VAEdesign/targets/RdRp-SARS-CoV-2/pocket_docking.prm

>  <SCORE>
-15.2514

>  <SCORE.INTER>
-16.852

>  <SCORE.INTER.CONST>
1

>  <SCORE.INTER.POLAR>
-0.894427

>  <SCORE.INTER.REPUL>
0.00103467

>  <SCORE.INTER.ROT>
6

>  <SCORE.INTER.VDW>
-25.2161

>  <SCORE.INTER.norm>
-0.702167

>  <SCORE.INTRA>
1.60065

>  <SCORE.INTRA.DIHEDRAL>
6.52963

>  <SCORE.INTRA.DIHEDRAL.0>
3.03502

>  <SCORE.INTRA.POLAR>
0

>  <SCORE.INTRA.POLAR.0>
0

>  <SCORE.INTRA.REPUL>
0

>  <SCORE.INTRA.REPUL.0>
0

>  <SCORE.INTRA.VDW>
-1.66416

>  <SCORE.INTRA.VDW.0>
6.17512

>  <SCORE.INTRA.norm>
0.0666937

>  <SCORE.RESTR>
0

>  <SCORE.RESTR.CAVITY>
0

>  <SCORE.RESTR.norm>
0

>  <SCORE.SYSTEM>
0

>  <SCORE.SYSTEM.CONST>
0

>  <SCORE.SYSTEM.DIHEDRAL>
0

>  <SCORE.SYSTEM.norm>
0

>  <SCORE.heavy>
24

>  <SCORE.norm>
-0.635473

$$$$
design_10
 OpenBabel05252019093D

 20 21  0  0  0  0  0  0  0  0999 V2000
   45.8135  -45.2953    4.6120 C   0  0  0  0  0  0  0  0  0  0  0  0
   45.9991  -44.6101    6.2542 S   0  0  0  0  0  0  0  0  0  0  0  0
   44.4997  -44.7696    7.2232 C   0  0  0  0  0  0  0  0  0  0  0  0
   44.2232  -44.0147    8.3206 C   0  0  0  0  0  0  0  0  0  0  0  0
   43.0312  -44.2045    9.0172 C   0  0  0  0  0  0  0  0  0  0  0  0
   42.1024  -45.1309    8.6481 C   0  0  0  0  0  0  0  0  0  0  0  0
   40.6245  -45.4548    9.4928 S   0  0  0  0  0  0  0  0  0  0  0  0
   40.8002  -45.2726   10.9841 O   0  0  0  0  0  0  0  0  0  0  0  0
   39.6081  -44.3912    9.0722 O   0  0  0  0  0  0  0  0  0  0  0  0
   39.9034  -46.9594    9.2119 N   0  0  0  0  0  0  0  0  0  0  0  0
   39.1099  -47.1847    8.0762 C   0  0  0  0  0  0  0  0  0  0  0  0
   39.1855  -48.4048    7.4387 C   0  0  0  0  0  0  0  0  0  0  0  0
   38.4642  -48.7101    6.3056 C   0  0  0  0  0  0  0  0  0  0  0  0
   37.6202  -47.7695    5.7637 C   0  0  0  0  0  0  0  0  0  0  0  0
   37.5284  -46.5455    6.3832 C   0  0  0  0  0  0  0  0  0  0  0  0
   36.6420  -45.5508    5.8183 C   0  0  0  0  0  0  0  0  0  0  0  0
   35.9482  -44.7604    5.3587 N   0  0  0  0  0  0  0  0  0  0  0  0
   38.2714  -46.2543    7.5370 C   0  0  0  0  0  0  0  0  0  0  0  0
   42.3829  -45.9086    7.5211 C   0  0  0  0  0  0  0  0  0  0  0  0
   43.5775  -45.7158    6.8260 C   0  0  0  0  0  0  0  0  0  0  0  0
  1  2  1  0  0  0  0
  2  3  1  0  0  0  0
  3  4  2  0  0  0  0
  4  5  1  0  0  0  0
  5  6  2  0  0  0  0
  6  7  1  0  0  0  0
  6 19  1  0  0  0  0
  7  8  2  0  0  0  0
  7  9  2  0  0  0  0
  7 10  1  0  0  0  0
 10 11  1  0  0  0  0
 11 12  2  0  0  0  0
 12 13  1  0  0  0  0
 13 14  2  0  0  0  0
 14 15  1  0  0  0  0
 15 16  1  0  0  0  0
 15 18  2  0  0  0  0
 16 17  3  0  0  0  0
 18 11  1  0  0  0  0
 19 20  2  0  0  0  0
 20  3  1  0  0  0  0
M  END
>  <CHROM.1>
-159.87666787,-33.64535027,-81.36647362,141.95514907,41.09974881,-45.72684770
7.58229968,-0.03464012,-0.24208380,-1.79210700

>  <Name>
design_10

>  <RI>
0

>  <Rbt.Current_Directory>
/home/ziqiaoxu/icml18-jtnn/VAEdesign

>  <Rbt.Executable>
rbdock ($Id: //depot/dev/client3/rdock/2013.1/src/exe/rbdock.cxx#4 $)

>  <Rbt.Library>
libRbt.so (2013.1, Build901 2013/11/27)

>  <Rbt.Parameter_File>
/export/apps/rDock/src/rDock_2013.1_src//data/scripts/dock.prm

>  <Rbt.Receptor>
/home/ziqiaoxu/icml18-jtnn/VAEdesign/targets/RdRp-SARS-CoV-2/pocket_docking.prm

>  <SCORE>
-21.2525

>  <SCORE.INTER>
-20.0893

>  <SCORE.INTER.CONST>
1

>  <SCORE.INTER.POLAR>
-1.25883

>  <SCORE.INTER.REPUL>
0.00105267

>  <SCORE.INTER.ROT>
4

>  <SCORE.INTER.VDW>
-25.2145

>  <SCORE.INTER.norm>
-1.00446

>  <SCORE.INTRA>
-1.16323

>  <SCORE.INTRA.DIHEDRAL>
-3.80167

>  <SCORE.INTRA.DIHEDRAL.0>
12.9891

>  <SCORE.INTRA.POLAR>
0

>  <SCORE.INTRA.POLAR.0>
0

>  <SCORE.INTRA.REPUL>
0

>  <SCORE.INTRA.REPUL.0>
0

>  <SCORE.INTRA.VDW>
0.737598

>  <SCORE.INTRA.VDW.0>
-2.24171

>  <SCORE.INTRA.norm>
-0.0581617

>  <SCORE.RESTR>
0

>  <SCORE.RESTR.CAVITY>
0

>  <SCORE.RESTR.norm>
0

>  <SCORE.SYSTEM>
0

>  <SCORE.SYSTEM.CONST>
0

>  <SCORE.SYSTEM.DIHEDRAL>
0

>  <SCORE.SYSTEM.norm>
0

>  <SCORE.heavy>
20

>  <SCORE.norm>
-1.06262

$$$$
design_11
 OpenBabel05252019093D

 23 25  0  0  0  0  0  0  0  0999 V2000
   39.5224  -48.4937    6.4489 C   0  0  0  0  0  0  0  0  0  0  0  0
   39.9081  -47.5037    7.4855 C   0  0  0  0  0  0  0  0  0  0  0  0
   39.0560  -47.3017    8.5828 C   0  0  0  0  0  0  0  0  0  0  0  0
   39.3796  -46.4169    9.5880 C   0  0  0  0  0  0  0  0  0  0  0  0
   40.5552  -45.7314    9.5046 C   0  0  0  0  0  0  0  0  0  0  0  0
   41.4656  -45.8902    8.4197 C   0  0  0  0  0  0  0  0  0  0  0  0
   42.6903  -45.1064    8.4636 C   0  0  0  0  0  0  0  0  0  0  0  0
   42.9885  -44.3533    9.5881 N   0  0  0  0  0  0  0  0  0  0  0  0
   44.1613  -43.7764    9.4543 N   0  0  0  0  0  0  0  0  0  0  0  0
   44.7027  -44.0978    8.2754 C   0  0  0  0  0  0  0  0  0  0  0  0
   43.7427  -44.9451    7.6612 C   0  0  0  0  0  0  0  0  0  0  0  0
   43.8692  -45.4352    6.2539 C   0  0  0  0  0  0  0  0  0  0  0  0
   45.2562  -45.3369    5.8599 N   0  0  0  0  0  0  0  0  0  0  0  0
   45.5926  -44.8374    4.6021 C   0  0  0  0  0  0  0  0  0  0  0  0
   46.1304  -46.0299    3.7912 C   0  0  2  0  0  0  0  0  0  0  0  0
   47.5545  -46.0938    3.9002 O   0  0  0  0  0  0  0  0  0  0  0  0
   45.8873  -45.8517    2.3460 C   0  0  0  0  0  0  0  0  0  0  0  0
   46.5617  -44.7662    1.7613 C   0  0  0  0  0  0  0  0  0  0  0  0
   46.4315  -44.4282    0.4523 C   0  0  0  0  0  0  0  0  0  0  0  0
   45.6129  -45.1605   -0.3634 C   0  0  0  0  0  0  0  0  0  0  0  0
   44.9277  -46.2487    0.1888 C   0  0  0  0  0  0  0  0  0  0  0  0
   45.0853  -46.5638    1.5340 C   0  0  0  0  0  0  0  0  0  0  0  0
   41.0864  -46.7790    7.4577 C   0  0  0  0  0  0  0  0  0  0  0  0
  1  2  1  0  0  0  0
  2  3  2  0  0  0  0
  3  4  1  0  0  0  0
  4  5  2  0  0  0  0
  5  6  1  0  0  0  0
  6  7  1  0  0  0  0
  6 23  2  0  0  0  0
  7  8  2  0  0  0  0
  8  9  1  0  0  0  0
  9 10  1  0  0  0  0
 10 11  2  0  0  0  0
 11 12  1  0  0  0  0
 11  7  1  0  0  0  0
 12 13  1  0  0  0  0
 13 14  1  0  0  0  0
 15 14  1  0  0  0  0
 15 16  1  6  0  0  0
 15 17  1  0  0  0  0
 17 18  2  0  0  0  0
 18 19  1  0  0  0  0
 19 20  2  0  0  0  0
 20 21  1  0  0  0  0
 21 22  2  0  0  0  0
 22 17  1  0  0  0  0
 23  2  1  0  0  0  0
M  END
>  <CHROM.1>
6.25872006,-166.50703017,-136.30050906,-110.07197419,-93.75389046,59.98266394
64.36181401,43.63597283,-45.70021395,5.71221122,2.29575711,0.48368198,1.26992991

>  <Name>
design_11

>  <RI>
0

>  <Rbt.Current_Directory>
/home/ziqiaoxu/icml18-jtnn/VAEdesign

>  <Rbt.Executable>
rbdock ($Id: //depot/dev/client3/rdock/2013.1/src/exe/rbdock.cxx#4 $)

>  <Rbt.Library>
libRbt.so (2013.1, Build901 2013/11/27)

>  <Rbt.Parameter_File>
/export/apps/rDock/src/rDock_2013.1_src//data/scripts/dock.prm

>  <Rbt.Receptor>
/home/ziqiaoxu/icml18-jtnn/VAEdesign/targets/RdRp-SARS-CoV-2/pocket_docking.prm

>  <SCORE>
-21.285

>  <SCORE.INTER>
-18.7075

>  <SCORE.INTER.CONST>
1

>  <SCORE.INTER.POLAR>
-1.43913

>  <SCORE.INTER.REPUL>
0

>  <SCORE.INTER.ROT>
6

>  <SCORE.INTER.VDW>
-25.2144

>  <SCORE.INTER.norm>
-0.813367

>  <SCORE.INTRA>
-2.5775

>  <SCORE.INTRA.DIHEDRAL>
-3.6237

>  <SCORE.INTRA.DIHEDRAL.0>
11.4305

>  <SCORE.INTRA.POLAR>
0

>  <SCORE.INTRA.POLAR.0>
0

>  <SCORE.INTRA.REPUL>
0

>  <SCORE.INTRA.REPUL.0>
0

>  <SCORE.INTRA.VDW>
-0.76565

>  <SCORE.INTRA.VDW.0>
0.345215

>  <SCORE.INTRA.norm>
-0.112065

>  <SCORE.RESTR>
0

>  <SCORE.RESTR.CAVITY>
0

>  <SCORE.RESTR.norm>
0

>  <SCORE.SYSTEM>
0

>  <SCORE.SYSTEM.CONST>
0

>  <SCORE.SYSTEM.DIHEDRAL>
0

>  <SCORE.SYSTEM.norm>
0

>  <SCORE.heavy>
23

>  <SCORE.norm>
-0.925433

$$$$
design_5
 OpenBabel05252019093D

 24 25  0  0  0  0  0  0  0  0999 V2000
   39.0488  -47.1858    8.6612 C   0  0  0  0  0  0  0  0  0  0  0  0
   40.3209  -46.5547    8.2840 C   0  0  0  0  0  0  0  0  0  0  0  0
   40.8906  -46.8443    7.0635 C   0  0  0  0  0  0  0  0  0  0  0  0
   42.0873  -46.2616    6.6886 C   0  0  0  0  0  0  0  0  0  0  0  0
   42.7335  -45.3742    7.5391 C   0  0  0  0  0  0  0  0  0  0  0  0
   44.2355  -44.6629    7.0317 S   0  0  0  0  0  0  0  0  0  0  0  0
   45.1219  -44.5618    8.2625 O   0  0  0  0  0  0  0  0  0  0  0  0
   44.0487  -43.2674    6.5082 O   0  0  0  0  0  0  0  0  0  0  0  0
   45.0502  -45.6609    5.9026 N   0  0  0  0  0  0  0  0  0  0  0  0
   46.1758  -44.9658    5.3177 C   0  0  0  0  0  0  0  0  0  0  0  0
   46.4547  -45.5872    4.0006 C   0  0  0  0  0  0  0  0  0  0  0  0
   47.5027  -46.4760    3.9037 C   0  0  0  0  0  0  0  0  0  0  0  0
   47.7732  -47.0607    2.6868 C   0  0  0  0  0  0  0  0  0  0  0  0
   46.9839  -46.7412    1.5856 C   0  0  0  0  0  0  0  0  0  0  0  0
   47.3169  -47.3944    0.3113 C   0  0  0  0  0  0  0  0  0  0  0  0
   45.9337  -45.8549    1.6678 C   0  0  0  0  0  0  0  0  0  0  0  0
   44.9715  -45.4758    0.2890 S   0  0  0  0  0  0  0  0  0  0  0  0
   43.6007  -44.4141    0.6631 C   0  0  0  0  0  0  0  0  0  0  0  0
   45.7899  -44.9253   -0.8620 O   0  0  0  0  0  0  0  0  0  0  0  0
   44.3720  -46.7743   -0.2373 O   0  0  0  0  0  0  0  0  0  0  0  0
   45.6952  -45.2875    2.9154 C   0  0  0  0  0  0  0  0  0  0  0  0
   42.1728  -45.0776    8.7618 C   0  0  0  0  0  0  0  0  0  0  0  0
   40.9756  -45.6698    9.1196 C   0  0  0  0  0  0  0  0  0  0  0  0
   40.3485  -45.3741   10.4207 C   0  0  0  0  0  0  0  0  0  0  0  0
  1  2  1  0  0  0  0
  2  3  2  0  0  0  0
  3  4  1  0  0  0  0
  4  5  2  0  0  0  0
  5  6  1  0  0  0  0
  5 22  1  0  0  0  0
  6  7  2  0  0  0  0
  6  8  2  0  0  0  0
  6  9  1  0  0  0  0
  9 10  1  0  0  0  0
 10 11  1  0  0  0  0
 11 12  2  0  0  0  0
 12 13  1  0  0  0  0
 13 14  2  0  0  0  0
 14 15  1  0  0  0  0
 14 16  1  0  0  0  0
 16 17  1  0  0  0  0
 16 21  2  0  0  0  0
 17 18  1  0  0  0  0
 17 19  2  0  0  0  0
 17 20  2  0  0  0  0
 21 11  1  0  0  0  0
 22 23  2  0  0  0  0
 23 24  1  0  0  0  0
 23  2  1  0  0  0  0
M  END
>  <CHROM.1>
-142.92076028,170.26472137,-155.61614764,-101.40669387,175.37541745,44.20039199
-45.63555433,4.68674156,2.09502827,0.16815579,1.43487266

>  <Name>
design_5

>  <RI>
0

>  <Rbt.Current_Directory>
/home/ziqiaoxu/icml18-jtnn/VAEdesign

>  <Rbt.Executable>
rbdock ($Id: //depot/dev/client3/rdock/2013.1/src/exe/rbdock.cxx#4 $)

>  <Rbt.Library>
libRbt.so (2013.1, Build901 2013/11/27)

>  <Rbt.Parameter_File>
/export/apps/rDock/src/rDock_2013.1_src//data/scripts/dock.prm

>  <Rbt.Receptor>
/home/ziqiaoxu/icml18-jtnn/VAEdesign/targets/RdRp-SARS-CoV-2/pocket_docking.prm

>  <SCORE>
-17.1392

>  <SCORE.INTER>
-17.6639

>  <SCORE.INTER.CONST>
1

>  <SCORE.INTER.POLAR>
-0.894427

>  <SCORE.INTER.REPUL>
0.038319

>  <SCORE.INTER.ROT>
5

>  <SCORE.INTER.VDW>
-25.2144

>  <SCORE.INTER.norm>
-0.735995

>  <SCORE.INTRA>
0.524674

>  <SCORE.INTRA.DIHEDRAL>
1.17068

>  <SCORE.INTRA.DIHEDRAL.0>
3.14132

>  <SCORE.INTRA.POLAR>
0

>  <SCORE.INTRA.POLAR.0>
0

>  <SCORE.INTRA.REPUL>
0

>  <SCORE.INTRA.REPUL.0>
0

>  <SCORE.INTRA.VDW>
-0.0606655

>  <SCORE.INTRA.VDW.0>
-1.96852

>  <SCORE.INTRA.norm>
0.0218614

>  <SCORE.RESTR>
0

>  <SCORE.RESTR.CAVITY>
0

>  <SCORE.RESTR.norm>
0

>  <SCORE.SYSTEM>
0

>  <SCORE.SYSTEM.CONST>
0

>  <SCORE.SYSTEM.DIHEDRAL>
0

>  <SCORE.SYSTEM.norm>
0

>  <SCORE.heavy>
24

>  <SCORE.norm>
-0.714133

$$$$
design_5
 OpenBabel05252019093D

 25 27  0  0  0  0  0  0  0  0999 V2000
   41.3046  -35.8615    2.4242 C   0  0  0  0  0  0  0  0  0  0  0  0
   39.8777  -36.1643    2.8240 C   0  0  0  0  0  0  0  0  0  0  0  0
   39.8279  -36.8359    4.1149 N   0  0  0  0  0  0  0  0  0  0  0  0
   40.0793  -38.2309    4.1833 C   0  0  0  0  0  0  0  0  0  0  0  0
   40.3422  -38.8757    3.1373 O   0  0  0  0  0  0  0  0  0  0  0  0
   40.0417  -38.9533    5.4537 C   0  0  0  0  0  0  0  0  0  0  0  0
   40.2857  -40.3014    5.5517 C   0  0  0  0  0  0  0  0  0  0  0  0
   40.2377  -40.9551    6.7589 C   0  0  0  0  0  0  0  0  0  0  0  0
   39.9389  -40.3000    7.9677 C   0  0  0  0  0  0  0  0  0  0  0  0
   39.9047  -41.0603    9.1660 N   0  0  0  0  0  0  0  0  0  0  0  0
   40.5177  -42.3077    9.3552 C   0  0  0  0  0  0  0  0  0  0  0  0
   41.1814  -42.9538    8.5220 O   0  0  0  0  0  0  0  0  0  0  0  0
   40.3795  -42.9300   10.6443 N   0  0  0  0  0  0  0  0  0  0  0  0
   40.9856  -44.2037   10.9007 C   0  0  0  0  0  0  0  0  0  0  0  0
   40.5709  -45.2352    9.8774 C   0  0  0  0  0  0  0  0  0  0  0  0
   39.5014  -46.0927    9.8999 C   0  0  0  0  0  0  0  0  0  0  0  0
   39.5098  -46.8420    8.7689 N   0  0  0  0  0  0  0  0  0  0  0  0
   38.6732  -47.8212    8.3207 C   0  0  0  0  0  0  0  0  0  0  0  0
   38.8683  -48.4639    7.1173 C   0  0  0  0  0  0  0  0  0  0  0  0
   39.9591  -48.0757    6.3680 C   0  0  0  0  0  0  0  0  0  0  0  0
   40.7937  -47.0864    6.8341 C   0  0  0  0  0  0  0  0  0  0  0  0
   40.5756  -46.4529    8.0516 C   0  0  0  0  0  0  0  0  0  0  0  0
   41.2214  -45.4798    8.7190 N   0  0  0  0  0  0  0  0  0  0  0  0
   39.6973  -38.9592    7.8623 C   0  0  0  0  0  0  0  0  0  0  0  0
   39.7478  -38.2980    6.6287 C   0  0  0  0  0  0  0  0  0  0  0  0
  1  2  1  0  0  0  0
  2  3  1  0  0  0  0
  3  4  1  0  0  0  0
  4  5  2  0  0  0  0
  4  6  1  0  0  0  0
  6  7  2  0  0  0  0
  7  8  1  0  0  0  0
  8  9  2  0  0  0  0
  9 10  1  0  0  0  0
  9 24  1  0  0  0  0
 10 11  1  0  0  0  0
 11 12  2  0  0  0  0
 11 13  1  0  0  0  0
 13 14  1  0  0  0  0
 14 15  1  0  0  0  0
 15 16  2  0  0  0  0
 16 17  1  0  0  0  0
 17 18  1  0  0  0  0
 18 19  2  0  0  0  0
 19 20  1  0  0  0  0
 20 21  2  0  0  0  0
 21 22  1  0  0  0  0
 22 23  2  0  0  0  0
 22 17  1  0  0  0  0
 23 15  1  0  0  0  0
 24 25  2  0  0  0  0
 25  6  1  0  0  0  0
M  END
>  <CHROM.1>
-80.55423178,-179.74121486,20.36507465,-54.02239753,-89.68584076,40.17286712
-42.26159275,7.14916088,1.26503599,-1.49445104,-0.76185677

>  <Name>
design_5

>  <RI>
0

>  <Rbt.Current_Directory>
/home/ziqiaoxu/icml18-jtnn/VAEdesign

>  <Rbt.Executable>
rbdock ($Id: //depot/dev/client3/rdock/2013.1/src/exe/rbdock.cxx#4 $)

>  <Rbt.Library>
libRbt.so (2013.1, Build901 2013/11/27)

>  <Rbt.Parameter_File>
/export/apps/rDock/src/rDock_2013.1_src//data/scripts/dock.prm

>  <Rbt.Receptor>
/home/ziqiaoxu/icml18-jtnn/VAEdesign/targets/RdRp-SARS-CoV-2/pocket_docking.prm

>  <SCORE>
-16.6317

>  <SCORE.INTER>
-17.8594

>  <SCORE.INTER.CONST>
1

>  <SCORE.INTER.POLAR>
-0.896098

>  <SCORE.INTER.REPUL>
0

>  <SCORE.INTER.ROT>
5

>  <SCORE.INTER.VDW>
-25.2127

>  <SCORE.INTER.norm>
-0.714377

>  <SCORE.INTRA>
1.2277

>  <SCORE.INTRA.DIHEDRAL>
1.65041

>  <SCORE.INTRA.DIHEDRAL.0>
3.61162

>  <SCORE.INTRA.POLAR>
0

>  <SCORE.INTRA.POLAR.0>
0

>  <SCORE.INTRA.REPUL>
0

>  <SCORE.INTRA.REPUL.0>
0

>  <SCORE.INTRA.VDW>
0.402496

>  <SCORE.INTRA.VDW.0>
-0.84278

>  <SCORE.INTRA.norm>
0.0491081

>  <SCORE.RESTR>
0

>  <SCORE.RESTR.CAVITY>
0

>  <SCORE.RESTR.norm>
0

>  <SCORE.SYSTEM>
0

>  <SCORE.SYSTEM.CONST>
0

>  <SCORE.SYSTEM.DIHEDRAL>
0

>  <SCORE.SYSTEM.norm>
0

>  <SCORE.heavy>
25

>  <SCORE.norm>
-0.665269

$$$$
design_10
 OpenBabel05252019093D

 25 28  0  0  0  0  0  0  0  0999 V2000
   41.9433  -44.5903   10.3926 O   0  0  0  0  0  0  0  0  0  0  0  0
   42.0027  -45.0701    9.1882 C   0  0  0  0  0  0  0  0  0  0  0  0
   40.9005  -45.8901    8.7895 C   0  0  0  0  0  0  0  0  0  0  0  0
   39.8403  -46.1820    9.6049 C   0  0  0  0  0  0  0  0  0  0  0  0
   38.8202  -47.0026    9.1052 C   0  0  0  0  0  0  0  0  0  0  0  0
   38.8771  -47.5056    7.8268 C   0  0  0  0  0  0  0  0  0  0  0  0
   39.9309  -47.2289    6.9835 C   0  0  0  0  0  0  0  0  0  0  0  0
   39.9793  -47.7763    5.6023 C   0  0  0  0  0  0  0  0  0  0  0  0
   40.2607  -46.7323    4.6057 N   0  0  0  0  0  0  0  0  0  0  0  0
   39.8302  -45.4182    4.9291 C   0  0  0  0  0  0  0  0  0  0  0  0
   40.7125  -44.4004    5.0031 N   0  0  0  0  0  0  0  0  0  0  0  0
   40.3791  -43.1506    5.2999 C   0  0  0  0  0  0  0  0  0  0  0  0
   39.0837  -42.8501    5.5479 N   0  0  0  0  0  0  0  0  0  0  0  0
   38.1643  -43.8159    5.4897 C   0  0  0  0  0  0  0  0  0  0  0  0
   36.8518  -43.4452    5.7541 C   0  0  0  0  0  0  0  0  0  0  0  0
   35.8622  -44.4045    5.7074 C   0  0  0  0  0  0  0  0  0  0  0  0
   36.2150  -45.6928    5.4001 C   0  0  0  0  0  0  0  0  0  0  0  0
   37.5409  -46.0601    5.1344 C   0  0  0  0  0  0  0  0  0  0  0  0
   38.5191  -45.1112    5.1808 C   0  0  0  0  0  0  0  0  0  0  0  0
   40.9205  -46.4247    7.4878 C   0  0  0  0  0  0  0  0  0  0  0  0
   43.1674  -44.6837    8.4875 N   0  0  0  0  0  0  0  0  0  0  0  0
   43.6538  -44.9511    7.1707 C   0  0  0  0  0  0  0  0  0  0  0  0
   44.9263  -44.1768    7.0010 C   0  0  0  0  0  0  0  0  0  0  0  0
   45.4598  -44.1074    8.4174 C   0  0  0  0  0  0  0  0  0  0  0  0
   44.1760  -43.8235    9.1661 C   0  0  0  0  0  0  0  0  0  0  0  0
  1  2  2  0  0  0  0
  2  3  1  0  0  0  0
  2 21  1  0  0  0  0
  3  4  2  0  0  0  0
  4  5  1  0  0  0  0
  5  6  2  0  0  0  0
  6  7  1  0  0  0  0
  7  8  1  0  0  0  0
  7 20  2  0  0  0  0
  8  9  1  0  0  0  0
  9 10  1  0  0  0  0
 10 11  2  0  0  0  0
 11 12  1  0  0  0  0
 12 13  2  0  0  0  0
 13 14  1  0  0  0  0
 14 15  2  0  0  0  0
 15 16  1  0  0  0  0
 16 17  2  0  0  0  0
 17 18  1  0  0  0  0
 18 19  2  0  0  0  0
 19 10  1  0  0  0  0
 19 14  1  0  0  0  0
 20  3  1  0  0  0  0
 21 22  1  0  0  0  0
 22 23  1  0  0  0  0
 23 24  1  0  0  0  0
 24 25  1  0  0  0  0
 25 21  1  0  0  0  0
M  END
>  <CHROM.1>
-0.64512772,129.99552771,-28.66649038,120.97052866,40.40043852,-45.20549310
6.95160828,0.31349989,0.35809841,2.19601300

>  <Name>
design_10

>  <RI>
0

>  <Rbt.Current_Directory>
/home/ziqiaoxu/icml18-jtnn/VAEdesign

>  <Rbt.Executable>
rbdock ($Id: //depot/dev/client3/rdock/2013.1/src/exe/rbdock.cxx#4 $)

>  <Rbt.Library>
libRbt.so (2013.1, Build901 2013/11/27)

>  <Rbt.Parameter_File>
/export/apps/rDock/src/rDock_2013.1_src//data/scripts/dock.prm

>  <Rbt.Receptor>
/home/ziqiaoxu/icml18-jtnn/VAEdesign/targets/RdRp-SARS-CoV-2/pocket_docking.prm

>  <SCORE>
-16.8538

>  <SCORE.INTER>
-19.5014

>  <SCORE.INTER.CONST>
1

>  <SCORE.INTER.POLAR>
-1.08972

>  <SCORE.INTER.REPUL>
0.00322699

>  <SCORE.INTER.ROT>
4

>  <SCORE.INTER.VDW>
-25.2125

>  <SCORE.INTER.norm>
-0.780057

>  <SCORE.INTRA>
2.64765

>  <SCORE.INTRA.DIHEDRAL>
9.42167

>  <SCORE.INTRA.DIHEDRAL.0>
3.1244

>  <SCORE.INTRA.POLAR>
0

>  <SCORE.INTRA.POLAR.0>
0

>  <SCORE.INTRA.REPUL>
0

>  <SCORE.INTRA.REPUL.0>
0

>  <SCORE.INTRA.VDW>
-2.06319

>  <SCORE.INTRA.VDW.0>
0.309038

>  <SCORE.INTRA.norm>
0.105906

>  <SCORE.RESTR>
0

>  <SCORE.RESTR.CAVITY>
0

>  <SCORE.RESTR.norm>
0

>  <SCORE.SYSTEM>
0

>  <SCORE.SYSTEM.CONST>
0

>  <SCORE.SYSTEM.DIHEDRAL>
0

>  <SCORE.SYSTEM.norm>
0

>  <SCORE.heavy>
25

>  <SCORE.norm>
-0.674151

$$$$
design_13
 OpenBabel05252019093D

 20 21  0  0  0  0  0  0  0  0999 V2000
   39.1011  -48.5835    6.6543 C   0  0  0  0  0  0  0  0  0  0  0  0
   39.6834  -47.5844    7.5837 C   0  0  0  0  0  0  0  0  0  0  0  0
   39.0389  -47.1932    8.7404 C   0  0  0  0  0  0  0  0  0  0  0  0
   39.5701  -46.2710    9.6077 C   0  0  0  0  0  0  0  0  0  0  0  0
   40.7998  -45.7258    9.2891 C   0  0  0  0  0  0  0  0  0  0  0  0
   41.4699  -46.0963    8.1396 C   0  0  0  0  0  0  0  0  0  0  0  0
   42.7852  -45.4743    7.8656 C   0  0  0  0  0  0  0  0  0  0  0  0
   43.4623  -44.6206    8.6135 N   0  0  0  0  0  0  0  0  0  0  0  0
   44.6071  -44.1783    8.2204 C   0  0  0  0  0  0  0  0  0  0  0  0
   45.4214  -43.1918    9.0381 C   0  0  0  0  0  0  0  0  0  0  0  0
   45.5303  -43.6965   10.4403 C   0  0  0  0  0  0  0  0  0  0  0  0
   45.0075  -42.9805   11.3080 O   0  0  0  0  0  0  0  0  0  0  0  0
   46.1760  -44.8985   10.7623 N   0  0  0  0  0  0  0  0  0  0  0  0
   46.3725  -45.5464   12.0044 C   0  0  0  0  0  0  0  0  0  0  0  0
   46.1613  -44.8089   13.2657 C   0  0  0  0  0  0  0  0  0  0  0  0
   44.6917  -44.6313   13.6355 C   0  0  0  0  0  0  0  0  0  0  0  0
   46.9330  -43.5542   13.4925 C   0  0  0  0  0  0  0  0  0  0  0  0
   45.0881  -44.6217    7.0136 C   0  0  0  0  0  0  0  0  0  0  0  0
   43.8233  -45.6714    6.5184 S   0  0  0  0  0  0  0  0  0  0  0  0
   40.9157  -47.0127    7.3021 C   0  0  0  0  0  0  0  0  0  0  0  0
  1  2  1  0  0  0  0
  2  3  2  0  0  0  0
  3  4  1  0  0  0  0
  4  5  2  0  0  0  0
  5  6  1  0  0  0  0
  6  7  1  0  0  0  0
  6 20  2  0  0  0  0
  7  8  2  0  0  0  0
  8  9  1  0  0  0  0
  9 10  1  0  0  0  0
  9 18  2  0  0  0  0
 10 11  1  0  0  0  0
 11 12  2  0  0  0  0
 11 13  1  0  0  0  0
 13 14  1  0  0  0  0
 14 15  1  0  0  0  0
 15 16  1  0  0  0  0
 15 17  1  0  0  0  0
 18 19  1  0  0  0  0
 19  7  1  0  0  0  0
 20  2  1  0  0  0  0
M  END
>  <CHROM.1>
2.91597860,50.19049126,-116.86559567,-15.31417216,77.13113711,43.43533930
-45.31035438,9.36414300,2.51957051,-0.46387557,-1.58994426

>  <Name>
design_13

>  <RI>
0

>  <Rbt.Current_Directory>
/home/ziqiaoxu/icml18-jtnn/VAEdesign

>  <Rbt.Executable>
rbdock ($Id: //depot/dev/client3/rdock/2013.1/src/exe/rbdock.cxx#4 $)

>  <Rbt.Library>
libRbt.so (2013.1, Build901 2013/11/27)

>  <Rbt.Parameter_File>
/export/apps/rDock/src/rDock_2013.1_src//data/scripts/dock.prm

>  <Rbt.Receptor>
/home/ziqiaoxu/icml18-jtnn/VAEdesign/targets/RdRp-SARS-CoV-2/pocket_docking.prm

>  <SCORE>
-18.4491

>  <SCORE.INTER>
-18.9109

>  <SCORE.INTER.CONST>
1

>  <SCORE.INTER.POLAR>
-1.21853

>  <SCORE.INTER.REPUL>
0.00888782

>  <SCORE.INTER.ROT>
5

>  <SCORE.INTER.VDW>
-25.2123

>  <SCORE.INTER.norm>
-0.945545

>  <SCORE.INTRA>
0.461833

>  <SCORE.INTRA.DIHEDRAL>
-0.722908

>  <SCORE.INTRA.DIHEDRAL.0>
4.81535

>  <SCORE.INTRA.POLAR>
0

>  <SCORE.INTRA.POLAR.0>
0

>  <SCORE.INTRA.REPUL>
0

>  <SCORE.INTRA.REPUL.0>
0

>  <SCORE.INTRA.VDW>
0.823287

>  <SCORE.INTRA.VDW.0>
-2.05518

>  <SCORE.INTRA.norm>
0.0230917

>  <SCORE.RESTR>
0

>  <SCORE.RESTR.CAVITY>
0

>  <SCORE.RESTR.norm>
0

>  <SCORE.SYSTEM>
0

>  <SCORE.SYSTEM.CONST>
0

>  <SCORE.SYSTEM.DIHEDRAL>
0

>  <SCORE.SYSTEM.norm>
0

>  <SCORE.heavy>
20

>  <SCORE.norm>
-0.922454

$$$$
design_15
 OpenBabel05252019093D

 24 26  0  0  0  0  0  0  0  0999 V2000
   42.9292  -45.1117    6.0791 O   0  0  0  0  0  0  0  0  0  0  0  0
   43.7351  -45.0494    7.0349 C   0  0  0  0  0  0  0  0  0  0  0  0
   43.2304  -44.7081    8.3584 C   0  0  0  0  0  0  0  0  0  0  0  0
   41.9570  -45.3158    8.7389 C   0  0  0  0  0  0  0  0  0  0  0  0
   41.4183  -44.9386    9.9774 C   0  0  0  0  0  0  0  0  0  0  0  0
   40.2403  -45.4902   10.4216 C   0  0  0  0  0  0  0  0  0  0  0  0
   39.5712  -46.4329    9.6427 C   0  0  0  0  0  0  0  0  0  0  0  0
   40.0820  -46.8255    8.4108 C   0  0  0  0  0  0  0  0  0  0  0  0
   39.3910  -47.8502    7.5543 C   0  0  0  0  0  0  0  0  0  0  0  0
   38.7536  -48.7817    8.3101 F   0  0  0  0  0  0  0  0  0  0  0  0
   38.5115  -47.1768    6.7257 F   0  0  0  0  0  0  0  0  0  0  0  0
   40.3540  -48.4361    6.7308 F   0  0  0  0  0  0  0  0  0  0  0  0
   41.2557  -46.2540    8.0024 C   0  0  0  0  0  0  0  0  0  0  0  0
   45.0979  -45.3215    6.7082 N   0  0  0  0  0  0  0  0  0  0  0  0
   45.5063  -45.5491    5.3673 C   0  0  0  0  0  0  0  0  0  0  0  0
   46.8207  -45.7337    5.0471 N   0  0  0  0  0  0  0  0  0  0  0  0
   46.8468  -45.9174    3.7654 N   0  0  0  0  0  0  0  0  0  0  0  0
   45.5860  -45.8558    3.2493 C   0  0  0  0  0  0  0  0  0  0  0  0
   45.2130  -46.0138    1.8074 C   0  0  0  0  0  0  0  0  0  0  0  0
   43.9425  -45.8729    1.3665 C   0  0  0  0  0  0  0  0  0  0  0  0
   43.7310  -46.0614    0.0238 C   0  0  0  0  0  0  0  0  0  0  0  0
   45.2780  -46.4225   -0.5791 S   0  0  0  0  0  0  0  0  0  0  0  0
   46.1709  -46.3293    0.8789 C   0  0  0  0  0  0  0  0  0  0  0  0
   44.8135  -45.6280    4.2669 O   0  0  0  0  0  0  0  0  0  0  0  0
  1  2  2  0  0  0  0
  2  3  1  0  0  0  0
  2 14  1  0  0  0  0
  3  4  1  0  0  0  0
  4  5  2  0  0  0  0
  5  6  1  0  0  0  0
  6  7  2  0  0  0  0
  7  8  1  0  0  0  0
  8  9  1  0  0  0  0
  8 13  2  0  0  0  0
  9 10  1  0  0  0  0
  9 11  1  0  0  0  0
  9 12  1  0  0  0  0
 13  4  1  0  0  0  0
 14 15  1  0  0  0  0
 15 16  2  0  0  0  0
 16 17  1  0  0  0  0
 17 18  2  0  0  0  0
 18 19  1  0  0  0  0
 18 24  1  0  0  0  0
 19 20  1  0  0  0  0
 20 21  2  0  0  0  0
 21 22  1  0  0  0  0
 22 23  1  0  0  0  0
 23 19  2  0  0  0  0
 24 15  1  0  0  0  0
M  END
>  <CHROM.1>
40.76573111,-176.43982722,-32.66216317,176.22442187,-176.63566690,42.92188381
-46.22383393,5.47350793,-2.27873735,-0.42633277,-1.82050493

>  <Name>
design_15

>  <RI>
0

>  <Rbt.Current_Directory>
/home/ziqiaoxu/icml18-jtnn/VAEdesign

>  <Rbt.Executable>
rbdock ($Id: //depot/dev/client3/rdock/2013.1/src/exe/rbdock.cxx#4 $)

>  <Rbt.Library>
libRbt.so (2013.1, Build901 2013/11/27)

>  <Rbt.Parameter_File>
/export/apps/rDock/src/rDock_2013.1_src//data/scripts/dock.prm

>  <Rbt.Receptor>
/home/ziqiaoxu/icml18-jtnn/VAEdesign/targets/RdRp-SARS-CoV-2/pocket_docking.prm

>  <SCORE>
-16.8005

>  <SCORE.INTER>
-16.1688

>  <SCORE.INTER.CONST>
1

>  <SCORE.INTER.POLAR>
-0.399111

>  <SCORE.INTER.REPUL>
0

>  <SCORE.INTER.ROT>
5

>  <SCORE.INTER.VDW>
-25.2118

>  <SCORE.INTER.norm>
-0.6737

>  <SCORE.INTRA>
-0.631688

>  <SCORE.INTRA.DIHEDRAL>
-1.01033

>  <SCORE.INTRA.DIHEDRAL.0>
3.93506

>  <SCORE.INTRA.POLAR>
0

>  <SCORE.INTRA.POLAR.0>
0

>  <SCORE.INTRA.REPUL>
0

>  <SCORE.INTRA.REPUL.0>
0

>  <SCORE.INTRA.VDW>
-0.12652

>  <SCORE.INTRA.VDW.0>
-0.752323

>  <SCORE.INTRA.norm>
-0.0263203

>  <SCORE.RESTR>
0

>  <SCORE.RESTR.CAVITY>
0

>  <SCORE.RESTR.norm>
0

>  <SCORE.SYSTEM>
0

>  <SCORE.SYSTEM.CONST>
0

>  <SCORE.SYSTEM.DIHEDRAL>
0

>  <SCORE.SYSTEM.norm>
0

>  <SCORE.heavy>
24

>  <SCORE.norm>
-0.700021

$$$$
design_12
 OpenBabel05252019093D

 26 28  0  0  0  0  0  0  0  0999 V2000
   40.1422  -46.2706   10.4922 N   0  0  0  0  0  0  0  0  0  0  0  0
   40.9345  -45.8198    9.4135 C   0  0  0  0  0  0  0  0  0  0  0  0
   41.8265  -44.9505    9.5508 O   0  0  0  0  0  0  0  0  0  0  0  0
   40.6924  -46.4031    8.0905 C   0  0  0  0  0  0  0  0  0  0  0  0
   39.6761  -47.3054    7.8635 C   0  0  0  0  0  0  0  0  0  0  0  0
   39.4630  -47.8514    6.6152 C   0  0  0  0  0  0  0  0  0  0  0  0
   40.2796  -47.5027    5.5331 C   0  0  0  0  0  0  0  0  0  0  0  0
   41.2982  -46.6013    5.7511 C   0  0  0  0  0  0  0  0  0  0  0  0
   42.2266  -46.1752    4.6773 C   0  0  0  0  0  0  0  0  0  0  0  0
   41.6010  -45.5870    3.5386 N   0  0  0  0  0  0  0  0  0  0  0  0
   41.7225  -44.2268    3.1598 C   0  0  0  0  0  0  0  0  0  0  0  0
   42.4231  -43.4327    3.8464 O   0  0  0  0  0  0  0  0  0  0  0  0
   41.0284  -43.7069    1.9446 C   0  0  0  0  0  0  0  0  0  0  0  0
   41.8950  -42.7090    1.2506 C   0  0  0  0  0  0  0  0  0  0  0  0
   43.1843  -43.2375    0.7704 C   0  0  0  0  0  0  0  0  0  0  0  0
   43.6066  -44.5781    0.9260 C   0  0  0  0  0  0  0  0  0  0  0  0
   44.7497  -44.7112    0.3524 O   0  0  0  0  0  0  0  0  0  0  0  0
   45.1516  -43.6095   -0.1754 N   0  0  0  0  0  0  0  0  0  0  0  0
   44.1766  -42.6487    0.0740 C   0  0  0  0  0  0  0  0  0  0  0  0
   44.3621  -41.2487   -0.3227 C   0  0  0  0  0  0  0  0  0  0  0  0
   43.4890  -40.2928    0.2397 C   0  0  0  0  0  0  0  0  0  0  0  0
   43.6359  -38.9756   -0.0785 C   0  0  0  0  0  0  0  0  0  0  0  0
   44.6131  -38.5046   -0.9409 C   0  0  0  0  0  0  0  0  0  0  0  0
   45.4713  -39.4230   -1.4963 C   0  0  0  0  0  0  0  0  0  0  0  0
   45.3205  -40.7805   -1.1683 C   0  0  0  0  0  0  0  0  0  0  0  0
   41.4949  -46.0604    7.0261 C   0  0  0  0  0  0  0  0  0  0  0  0
  1  2  1  0  0  0  0
  2  3  2  0  0  0  0
  2  4  1  0  0  0  0
  4  5  2  0  0  0  0
  5  6  1  0  0  0  0
  6  7  2  0  0  0  0
  7  8  1  0  0  0  0
  8  9  1  0  0  0  0
  8 26  2  0  0  0  0
  9 10  1  0  0  0  0
 10 11  1  0  0  0  0
 11 12  2  0  0  0  0
 11 13  1  0  0  0  0
 13 14  1  0  0  0  0
 14 15  1  0  0  0  0
 15 16  2  0  0  0  0
 16 17  1  0  0  0  0
 17 18  1  0  0  0  0
 18 19  2  0  0  0  0
 19 20  1  0  0  0  0
 19 15  1  0  0  0  0
 20 21  2  0  0  0  0
 21 22  1  0  0  0  0
 22 23  2  0  0  0  0
 23 24  1  0  0  0  0
 24 25  2  0  0  0  0
 25 20  1  0  0  0  0
 26  4  1  0  0  0  0
M  END
>  <CHROM.1>
3.87788197,57.80680629,112.27904160,-142.54355790,61.30951830,0.32060963
9.95206429,42.46800507,-43.98341404,3.41208373,-3.05628857,-1.21318255,-2.47730078

>  <Name>
design_12

>  <RI>
0

>  <Rbt.Current_Directory>
/home/ziqiaoxu/icml18-jtnn/VAEdesign

>  <Rbt.Executable>
rbdock ($Id: //depot/dev/client3/rdock/2013.1/src/exe/rbdock.cxx#4 $)

>  <Rbt.Library>
libRbt.so (2013.1, Build901 2013/11/27)

>  <Rbt.Parameter_File>
/export/apps/rDock/src/rDock_2013.1_src//data/scripts/dock.prm

>  <Rbt.Receptor>
/home/ziqiaoxu/icml18-jtnn/VAEdesign/targets/RdRp-SARS-CoV-2/pocket_docking.prm

>  <SCORE>
-26.5392

>  <SCORE.INTER>
-23.9097

>  <SCORE.INTER.CONST>
1

>  <SCORE.INTER.POLAR>
-3.38291

>  <SCORE.INTER.REPUL>
0.0803475

>  <SCORE.INTER.ROT>
7

>  <SCORE.INTER.VDW>
-25.2096

>  <SCORE.INTER.norm>
-0.919606

>  <SCORE.INTRA>
-2.62946

>  <SCORE.INTRA.DIHEDRAL>
-6.90084

>  <SCORE.INTRA.DIHEDRAL.0>
13.0106

>  <SCORE.INTRA.POLAR>
0

>  <SCORE.INTRA.POLAR.0>
0

>  <SCORE.INTRA.REPUL>
0

>  <SCORE.INTRA.REPUL.0>
0

>  <SCORE.INTRA.VDW>
0.820958

>  <SCORE.INTRA.VDW.0>
-0.870816

>  <SCORE.INTRA.norm>
-0.101133

>  <SCORE.RESTR>
0

>  <SCORE.RESTR.CAVITY>
0

>  <SCORE.RESTR.norm>
0

>  <SCORE.SYSTEM>
0

>  <SCORE.SYSTEM.CONST>
0

>  <SCORE.SYSTEM.DIHEDRAL>
0

>  <SCORE.SYSTEM.norm>
0

>  <SCORE.heavy>
26

>  <SCORE.norm>
-1.02074

$$$$
design_7
 OpenBabel05252019093D

 24 25  0  0  0  0  0  0  0  0999 V2000
   39.4867  -48.3319    6.2390 C   0  0  0  0  0  0  0  0  0  0  0  0
   40.6988  -47.8036    6.7331 O   0  0  0  0  0  0  0  0  0  0  0  0
   40.6553  -46.9451    7.8133 C   0  0  0  0  0  0  0  0  0  0  0  0
   39.6685  -47.0346    8.7539 C   0  0  0  0  0  0  0  0  0  0  0  0
   39.6927  -46.1389    9.8073 C   0  0  0  0  0  0  0  0  0  0  0  0
   40.6662  -45.1747    9.9344 C   0  0  0  0  0  0  0  0  0  0  0  0
   41.6676  -45.1037    8.9552 C   0  0  0  0  0  0  0  0  0  0  0  0
   41.6695  -45.9807    7.8974 C   0  0  0  0  0  0  0  0  0  0  0  0
   42.6712  -45.9462    6.8217 C   0  0  0  0  0  0  0  0  0  0  0  0
   42.1937  -46.0793    5.4955 N   0  0  0  0  0  0  0  0  0  0  0  0
   42.4932  -45.0830    4.4955 C   0  0  0  0  0  0  0  0  0  0  0  0
   43.1890  -44.0871    4.7580 O   0  0  0  0  0  0  0  0  0  0  0  0
   41.9750  -45.2512    3.1777 N   0  0  0  0  0  0  0  0  0  0  0  0
   42.2529  -44.2832    2.1482 C   0  0  0  0  0  0  0  0  0  0  0  0
   43.3941  -44.6558    1.2722 C   0  0  0  0  0  0  0  0  0  0  0  0
   43.7342  -45.9566    1.0806 C   0  0  0  0  0  0  0  0  0  0  0  0
   44.8059  -46.2213    0.2465 C   0  0  0  0  0  0  0  0  0  0  0  0
   45.4841  -45.2076   -0.3524 C   0  0  0  0  0  0  0  0  0  0  0  0
   45.1472  -43.8605   -0.1659 C   0  0  0  0  0  0  0  0  0  0  0  0
   45.8860  -42.8693   -0.8304 N   0  0  0  0  0  0  0  0  0  0  0  0
   45.5373  -41.5317   -0.9649 C   0  0  0  0  0  0  0  0  0  0  0  0
   46.4668  -40.5799   -1.7343 C   0  0  0  0  0  0  0  0  0  0  0  0
   44.5242  -40.9320   -0.5353 O   0  0  0  0  0  0  0  0  0  0  0  0
   44.0922  -43.6167    0.6563 C   0  0  0  0  0  0  0  0  0  0  0  0
  1  2  1  0  0  0  0
  2  3  1  0  0  0  0
  3  4  2  0  0  0  0
  4  5  1  0  0  0  0
  5  6  2  0  0  0  0
  6  7  1  0  0  0  0
  7  8  2  0  0  0  0
  8  9  1  0  0  0  0
  8  3  1  0  0  0  0
  9 10  1  0  0  0  0
 10 11  1  0  0  0  0
 11 12  2  0  0  0  0
 11 13  1  0  0  0  0
 13 14  1  0  0  0  0
 14 15  1  0  0  0  0
 15 16  2  0  0  0  0
 16 17  1  0  0  0  0
 17 18  2  0  0  0  0
 18 19  1  0  0  0  0
 19 20  1  0  0  0  0
 19 24  2  0  0  0  0
 20 21  1  0  0  0  0
 21 22  1  0  0  0  0
 21 23  2  0  0  0  0
 24 15  1  0  0  0  0
M  END
>  <CHROM.1>
29.26110612,43.15991163,124.36186737,96.58428190,26.67404885,166.71629537
42.83697013,-44.92858445,3.78400259,2.83856484,1.09720298,0.73942390

>  <Name>
design_7

>  <RI>
0

>  <Rbt.Current_Directory>
/home/ziqiaoxu/icml18-jtnn/VAEdesign

>  <Rbt.Executable>
rbdock ($Id: //depot/dev/client3/rdock/2013.1/src/exe/rbdock.cxx#4 $)

>  <Rbt.Library>
libRbt.so (2013.1, Build901 2013/11/27)

>  <Rbt.Parameter_File>
/export/apps/rDock/src/rDock_2013.1_src//data/scripts/dock.prm

>  <Rbt.Receptor>
/home/ziqiaoxu/icml18-jtnn/VAEdesign/targets/RdRp-SARS-CoV-2/pocket_docking.prm

>  <SCORE>
-21.5862

>  <SCORE.INTER>
-20.3276

>  <SCORE.INTER.CONST>
1

>  <SCORE.INTER.POLAR>
-1.91713

>  <SCORE.INTER.REPUL>
0

>  <SCORE.INTER.ROT>
6

>  <SCORE.INTER.VDW>
-25.2094

>  <SCORE.INTER.norm>
-0.846984

>  <SCORE.INTRA>
-1.25858

>  <SCORE.INTRA.DIHEDRAL>
1.50025

>  <SCORE.INTRA.DIHEDRAL.0>
4.10561

>  <SCORE.INTRA.POLAR>
-0.302962

>  <SCORE.INTRA.POLAR.0>
0

>  <SCORE.INTRA.REPUL>
0

>  <SCORE.INTRA.REPUL.0>
0

>  <SCORE.INTRA.VDW>
-0.978633

>  <SCORE.INTRA.VDW.0>
1.41584

>  <SCORE.INTRA.norm>
-0.0524409

>  <SCORE.RESTR>
0

>  <SCORE.RESTR.CAVITY>
0

>  <SCORE.RESTR.norm>
0

>  <SCORE.SYSTEM>
0

>  <SCORE.SYSTEM.CONST>
0

>  <SCORE.SYSTEM.DIHEDRAL>
0

>  <SCORE.SYSTEM.norm>
0

>  <SCORE.heavy>
24

>  <SCORE.norm>
-0.899425

$$$$
design_7
 OpenBabel05252019093D

 22 23  0  0  0  0  0  0  0  0999 V2000
   41.9222  -45.7241    6.3840 C   0  0  0  0  0  0  0  0  0  0  0  0
   41.2213  -45.8414    7.6746 C   0  0  0  0  0  0  0  0  0  0  0  0
   41.7675  -45.1626    8.7873 C   0  0  0  0  0  0  0  0  0  0  0  0
   41.2063  -45.2029   10.0341 C   0  0  0  0  0  0  0  0  0  0  0  0
   41.9042  -44.3493   11.4053 Cl  0  0  0  0  0  0  0  0  0  0  0  0
   40.0606  -45.9515   10.1567 C   0  0  0  0  0  0  0  0  0  0  0  0
   39.5208  -46.6142    9.0865 C   0  0  0  0  0  0  0  0  0  0  0  0
   40.0911  -46.5813    7.7893 C   0  0  0  0  0  0  0  0  0  0  0  0
   39.3139  -47.4554    6.5158 S   0  0  0  0  0  0  0  0  0  0  0  0
   38.6508  -48.7207    7.0869 O   0  0  0  0  0  0  0  0  0  0  0  0
   40.3739  -48.0453    5.5705 O   0  0  0  0  0  0  0  0  0  0  0  0
   38.1993  -46.6304    5.5708 N   0  0  0  0  0  0  0  0  0  0  0  0
   37.7398  -45.3209    5.7805 C   0  0  0  0  0  0  0  0  0  0  0  0
   38.4238  -44.3113    6.3943 C   0  0  0  0  0  0  0  0  0  0  0  0
   37.8571  -43.0531    6.5951 C   0  0  0  0  0  0  0  0  0  0  0  0
   36.5788  -42.7507    6.1899 C   0  0  0  0  0  0  0  0  0  0  0  0
   35.9570  -41.4227    6.3924 C   0  0  0  0  0  0  0  0  0  0  0  0
   34.6896  -41.2843    5.6377 C   0  0  0  0  0  0  0  0  0  0  0  0
   34.6897  -40.7139    4.3414 N   0  0  0  0  0  0  0  0  0  0  0  0
   33.6355  -41.6936    6.2017 O   0  0  0  0  0  0  0  0  0  0  0  0
   35.8888  -43.7714    5.5704 C   0  0  0  0  0  0  0  0  0  0  0  0
   36.4219  -45.0030    5.3651 C   0  0  0  0  0  0  0  0  0  0  0  0
  1  2  1  0  0  0  0
  2  3  2  0  0  0  0
  3  4  1  0  0  0  0
  4  5  1  0  0  0  0
  4  6  2  0  0  0  0
  6  7  1  0  0  0  0
  7  8  2  0  0  0  0
  8  9  1  0  0  0  0
  8  2  1  0  0  0  0
  9 10  2  0  0  0  0
  9 11  2  0  0  0  0
  9 12  1  0  0  0  0
 12 13  1  0  0  0  0
 13 14  2  0  0  0  0
 14 15  1  0  0  0  0
 15 16  2  0  0  0  0
 16 17  1  0  0  0  0
 16 21  1  0  0  0  0
 17 18  1  0  0  0  0
 18 19  1  0  0  0  0
 18 20  2  0  0  0  0
 21 22  2  0  0  0  0
 22 13  1  0  0  0  0
M  END
>  <CHROM.1>
147.43320654,-6.00466256,27.88551776,168.90716269,-93.43126303,38.68645863
-44.93088827,7.21989720,0.15238384,0.71954019,-2.52624816

>  <Name>
design_7

>  <RI>
0

>  <Rbt.Current_Directory>
/home/ziqiaoxu/icml18-jtnn/VAEdesign

>  <Rbt.Executable>
rbdock ($Id: //depot/dev/client3/rdock/2013.1/src/exe/rbdock.cxx#4 $)

>  <Rbt.Library>
libRbt.so (2013.1, Build901 2013/11/27)

>  <Rbt.Parameter_File>
/export/apps/rDock/src/rDock_2013.1_src//data/scripts/dock.prm

>  <Rbt.Receptor>
/home/ziqiaoxu/icml18-jtnn/VAEdesign/targets/RdRp-SARS-CoV-2/pocket_docking.prm

>  <SCORE>
-19.9876

>  <SCORE.INTER>
-19.7619

>  <SCORE.INTER.CONST>
1

>  <SCORE.INTER.POLAR>
-1.45715

>  <SCORE.INTER.REPUL>
0

>  <SCORE.INTER.ROT>
5

>  <SCORE.INTER.VDW>
-25.2076

>  <SCORE.INTER.norm>
-0.898268

>  <SCORE.INTRA>
-0.225705

>  <SCORE.INTRA.DIHEDRAL>
-0.951727

>  <SCORE.INTRA.DIHEDRAL.0>
8.43432

>  <SCORE.INTRA.POLAR>
0

>  <SCORE.INTRA.POLAR.0>
0

>  <SCORE.INTRA.REPUL>
0

>  <SCORE.INTRA.REPUL.0>
0

>  <SCORE.INTRA.VDW>
0.250158

>  <SCORE.INTRA.VDW.0>
-2.25881

>  <SCORE.INTRA.norm>
-0.0102593

>  <SCORE.RESTR>
0

>  <SCORE.RESTR.CAVITY>
0

>  <SCORE.RESTR.norm>
0

>  <SCORE.SYSTEM>
0

>  <SCORE.SYSTEM.CONST>
0

>  <SCORE.SYSTEM.DIHEDRAL>
0

>  <SCORE.SYSTEM.norm>
0

>  <SCORE.heavy>
22

>  <SCORE.norm>
-0.908528

$$$$
design_2
 OpenBabel05252019093D

 24 26  0  0  0  0  0  0  0  0999 V2000
   39.3068  -46.6145    9.2370 C   0  0  0  0  0  0  0  0  0  0  0  0
   40.4913  -45.7823    9.4894 C   0  0  0  0  0  0  0  0  0  0  0  0
   40.5957  -45.1634   10.6994 C   0  0  0  0  0  0  0  0  0  0  0  0
   41.7011  -44.3654   10.9653 C   0  0  0  0  0  0  0  0  0  0  0  0
   42.6822  -44.2017   10.0131 C   0  0  0  0  0  0  0  0  0  0  0  0
   42.5710  -44.8417    8.7637 C   0  0  0  0  0  0  0  0  0  0  0  0
   43.5948  -44.5538    7.7846 C   0  0  0  0  0  0  0  0  0  0  0  0
   43.9606  -43.3156    7.7608 O   0  0  0  0  0  0  0  0  0  0  0  0
   44.1578  -45.4926    6.9193 N   0  0  0  0  0  0  0  0  0  0  0  0
   45.1725  -45.1177    5.9690 C   0  0  0  0  0  0  0  0  0  0  0  0
   44.6129  -45.1455    4.6062 C   0  0  0  0  0  0  0  0  0  0  0  0
   43.5347  -44.5738    4.3509 O   0  0  0  0  0  0  0  0  0  0  0  0
   45.3437  -45.8436    3.6010 N   0  0  0  0  0  0  0  0  0  0  0  0
   46.5641  -46.5832    3.7005 C   0  0  0  0  0  0  0  0  0  0  0  0
   47.2328  -46.3053    2.3687 C   0  0  1  0  0  0  0  0  0  0  0  0
   48.1421  -47.4387    2.0301 C   0  0  0  0  0  0  0  0  0  0  0  0
   46.0641  -46.2183    1.4469 C   0  0  0  0  0  0  0  0  0  0  0  0
   45.9209  -46.3544    0.0852 C   0  0  0  0  0  0  0  0  0  0  0  0
   44.7050  -46.2214   -0.5739 C   0  0  0  0  0  0  0  0  0  0  0  0
   43.6032  -45.9389    0.1997 C   0  0  0  0  0  0  0  0  0  0  0  0
   43.7264  -45.7984    1.5738 C   0  0  0  0  0  0  0  0  0  0  0  0
   44.9414  -45.9329    2.2211 C   0  0  0  0  0  0  0  0  0  0  0  0
   41.4949  -45.6121    8.5241 C   0  0  0  0  0  0  0  0  0  0  0  0
   41.3179  -46.3766    7.2872 C   0  0  0  0  0  0  0  0  0  0  0  0
  1  2  1  0  0  0  0
  2  3  2  0  0  0  0
  3  4  1  0  0  0  0
  4  5  2  0  0  0  0
  5  6  1  0  0  0  0
  6  7  1  0  0  0  0
  6 23  2  0  0  0  0
  7  8  2  0  0  0  0
  7  9  1  0  0  0  0
  9 10  1  0  0  0  0
 10 11  1  0  0  0  0
 11 12  2  0  0  0  0
 11 13  1  0  0  0  0
 13 14  1  0  0  0  0
 14 15  1  0  0  0  0
 15 16  1  6  0  0  0
 15 17  1  0  0  0  0
 17 18  2  0  0  0  0
 18 19  1  0  0  0  0
 19 20  2  0  0  0  0
 20 21  1  0  0  0  0
 21 22  2  0  0  0  0
 22 13  1  0  0  0  0
 22 17  1  0  0  0  0
 23 24  1  0  0  0  0
 23  2  1  0  0  0  0
M  END
>  <CHROM.1>
-39.85333829,-108.68659474,49.42682768,43.81996186,-45.57572867,5.38811818
2.06142126,0.13457545,1.35941636

>  <Name>
design_2

>  <RI>
0

>  <Rbt.Current_Directory>
/home/ziqiaoxu/icml18-jtnn/VAEdesign

>  <Rbt.Executable>
rbdock ($Id: //depot/dev/client3/rdock/2013.1/src/exe/rbdock.cxx#4 $)

>  <Rbt.Library>
libRbt.so (2013.1, Build901 2013/11/27)

>  <Rbt.Parameter_File>
/export/apps/rDock/src/rDock_2013.1_src//data/scripts/dock.prm

>  <Rbt.Receptor>
/home/ziqiaoxu/icml18-jtnn/VAEdesign/targets/RdRp-SARS-CoV-2/pocket_docking.prm

>  <SCORE>
-16.9733

>  <SCORE.INTER>
-16.8061

>  <SCORE.INTER.CONST>
1

>  <SCORE.INTER.POLAR>
0

>  <SCORE.INTER.REPUL>
0

>  <SCORE.INTER.ROT>
3

>  <SCORE.INTER.VDW>
-25.2061

>  <SCORE.INTER.norm>
-0.700254

>  <SCORE.INTRA>
-0.167244

>  <SCORE.INTRA.DIHEDRAL>
0.933727

>  <SCORE.INTRA.DIHEDRAL.0>
7.23635

>  <SCORE.INTRA.POLAR>
0

>  <SCORE.INTRA.POLAR.0>
0

>  <SCORE.INTRA.REPUL>
0

>  <SCORE.INTRA.REPUL.0>
0

>  <SCORE.INTRA.VDW>
-0.634108

>  <SCORE.INTRA.VDW.0>
0.0441587

>  <SCORE.INTRA.norm>
-0.00696852

>  <SCORE.RESTR>
0

>  <SCORE.RESTR.CAVITY>
0

>  <SCORE.RESTR.norm>
0

>  <SCORE.SYSTEM>
0

>  <SCORE.SYSTEM.CONST>
0

>  <SCORE.SYSTEM.DIHEDRAL>
0

>  <SCORE.SYSTEM.norm>
0

>  <SCORE.heavy>
24

>  <SCORE.norm>
-0.707223

$$$$
design_12
 OpenBabel05252019093D

 25 26  0  0  0  0  0  0  0  0999 V2000
   42.5066  -40.7622    0.8005 C   0  0  0  0  0  0  0  0  0  0  0  0
   41.8173  -39.9917    1.8459 N   0  0  0  0  0  0  0  0  0  0  0  0
   42.2349  -38.6979    2.1962 C   0  0  0  0  0  0  0  0  0  0  0  0
   43.2384  -38.2064    1.5739 O   0  0  0  0  0  0  0  0  0  0  0  0
   41.5741  -37.9279    3.2172 C   0  0  0  0  0  0  0  0  0  0  0  0
   41.5591  -36.5308    3.0778 C   0  0  0  0  0  0  0  0  0  0  0  0
   40.9408  -35.7644    4.0306 C   0  0  0  0  0  0  0  0  0  0  0  0
   40.3462  -36.3803    5.1065 C   0  0  0  0  0  0  0  0  0  0  0  0
   40.3449  -37.7500    5.2704 C   0  0  0  0  0  0  0  0  0  0  0  0
   39.6934  -38.3817    6.4456 C   0  0  0  0  0  0  0  0  0  0  0  0
   40.7223  -38.7108    7.4873 C   0  0  0  0  0  0  0  0  0  0  0  0
   40.1551  -39.4134    8.6127 N   0  0  0  0  0  0  0  0  0  0  0  0
   40.1392  -40.8687    8.5204 C   0  0  0  0  0  0  0  0  0  0  0  0
   40.6025  -41.3906    7.5071 O   0  0  0  0  0  0  0  0  0  0  0  0
   39.5896  -41.5403    9.6119 N   0  0  0  0  0  0  0  0  0  0  0  0
   39.4749  -42.9222    9.8293 C   0  0  0  0  0  0  0  0  0  0  0  0
   40.5267  -43.8831    9.4796 C   0  0  1  0  0  0  0  0  0  0  0  0
   41.3014  -44.1390   10.8124 C   0  0  0  0  0  0  0  0  0  0  0  0
   40.1714  -45.1995    8.9467 C   0  0  0  0  0  0  0  0  0  0  0  0
   40.8936  -45.8576    7.9564 C   0  0  0  0  0  0  0  0  0  0  0  0
   40.4908  -47.0898    7.4480 C   0  0  0  0  0  0  0  0  0  0  0  0
   39.3531  -47.7018    7.9150 C   0  0  0  0  0  0  0  0  0  0  0  0
   38.6307  -47.0596    8.8953 C   0  0  0  0  0  0  0  0  0  0  0  0
   39.0169  -45.8419    9.4065 C   0  0  0  0  0  0  0  0  0  0  0  0
   40.9749  -38.5262    4.2989 C   0  0  0  0  0  0  0  0  0  0  0  0
  1  2  1  0  0  0  0
  2  3  1  0  0  0  0
  3  4  2  0  0  0  0
  3  5  1  0  0  0  0
  5  6  2  0  0  0  0
  6  7  1  0  0  0  0
  7  8  2  0  0  0  0
  8  9  1  0  0  0  0
  9 10  1  0  0  0  0
  9 25  2  0  0  0  0
 10 11  1  0  0  0  0
 11 12  1  0  0  0  0
 12 13  1  0  0  0  0
 13 14  2  0  0  0  0
 13 15  1  0  0  0  0
 15 16  1  0  0  0  0
 16 17  1  0  0  0  0
 17 18  1  1  0  0  0
 17 19  1  0  0  0  0
 19 20  2  0  0  0  0
 20 21  1  0  0  0  0
 21 22  2  0  0  0  0
 22 23  1  0  0  0  0
 23 24  2  0  0  0  0
 24 19  1  0  0  0  0
 25  5  1  0  0  0  0
M  END
>  <CHROM.1>
-148.82239799,-98.78655661,-175.90203021,90.03771849,39.97029174,97.85702576
142.79681691,40.67232458,-41.19903309,6.40794845,-0.93734815,-1.26961049
3.09059535

>  <Name>
design_12

>  <RI>
0

>  <Rbt.Current_Directory>
/home/ziqiaoxu/icml18-jtnn/VAEdesign

>  <Rbt.Executable>
rbdock ($Id: //depot/dev/client3/rdock/2013.1/src/exe/rbdock.cxx#4 $)

>  <Rbt.Library>
libRbt.so (2013.1, Build901 2013/11/27)

>  <Rbt.Parameter_File>
/export/apps/rDock/src/rDock_2013.1_src//data/scripts/dock.prm

>  <Rbt.Receptor>
/home/ziqiaoxu/icml18-jtnn/VAEdesign/targets/RdRp-SARS-CoV-2/pocket_docking.prm

>  <SCORE>
-20.3031

>  <SCORE.INTER>
-23.4391

>  <SCORE.INTER.CONST>
1

>  <SCORE.INTER.POLAR>
-3.12854

>  <SCORE.INTER.REPUL>
0

>  <SCORE.INTER.ROT>
7

>  <SCORE.INTER.VDW>
-25.202

>  <SCORE.INTER.norm>
-0.937563

>  <SCORE.INTRA>
3.13596

>  <SCORE.INTRA.DIHEDRAL>
6.97374

>  <SCORE.INTRA.DIHEDRAL.0>
4.02514

>  <SCORE.INTRA.POLAR>
0

>  <SCORE.INTRA.POLAR.0>
0

>  <SCORE.INTRA.REPUL>
0

>  <SCORE.INTRA.REPUL.0>
0

>  <SCORE.INTRA.VDW>
-0.35091

>  <SCORE.INTRA.VDW.0>
-0.793141

>  <SCORE.INTRA.norm>
0.125438

>  <SCORE.RESTR>
0

>  <SCORE.RESTR.CAVITY>
0

>  <SCORE.RESTR.norm>
0

>  <SCORE.SYSTEM>
0

>  <SCORE.SYSTEM.CONST>
0

>  <SCORE.SYSTEM.DIHEDRAL>
0

>  <SCORE.SYSTEM.norm>
0

>  <SCORE.heavy>
25

>  <SCORE.norm>
-0.812125

$$$$
design_3
 OpenBabel05252019093D

 26 29  0  0  0  0  0  0  0  0999 V2000
   46.3768  -40.8135   -2.0094 C   0  0  0  0  0  0  0  0  0  0  0  0
   45.6678  -41.7174   -1.0781 C   0  0  0  0  0  0  0  0  0  0  0  0
   46.2168  -42.9576   -0.7365 C   0  0  0  0  0  0  0  0  0  0  0  0
   45.5356  -43.7651    0.1240 C   0  0  0  0  0  0  0  0  0  0  0  0
   44.3235  -43.4442    0.6927 C   0  0  0  0  0  0  0  0  0  0  0  0
   43.6245  -44.3375    1.6122 C   0  0  0  0  0  0  0  0  0  0  0  0
   44.0510  -45.5304    2.0560 N   0  0  0  0  0  0  0  0  0  0  0  0
   43.1249  -46.0419    2.8844 N   0  0  0  0  0  0  0  0  0  0  0  0
   42.0915  -45.1889    2.9860 C   0  0  0  0  0  0  0  0  0  0  0  0
   40.8457  -45.3413    3.7920 C   0  0  0  0  0  0  0  0  0  0  0  0
   41.0223  -46.2684    4.8777 N   0  0  0  0  0  0  0  0  0  0  0  0
   39.8992  -46.8743    5.4743 C   0  0  0  0  0  0  0  0  0  0  0  0
   38.7537  -46.6027    5.0558 O   0  0  0  0  0  0  0  0  0  0  0  0
   40.0623  -47.8274    6.5891 C   0  0  0  0  0  0  0  0  0  0  0  0
   40.0752  -47.0846    7.8715 C   0  0  0  0  0  0  0  0  0  0  0  0
   39.1002  -47.2159    8.8406 C   0  0  0  0  0  0  0  0  0  0  0  0
   39.4424  -46.3925    9.8547 N   0  0  0  0  0  0  0  0  0  0  0  0
   40.5834  -45.7540    9.5654 C   0  0  0  0  0  0  0  0  0  0  0  0
   41.3453  -44.8163   10.2652 C   0  0  0  0  0  0  0  0  0  0  0  0
   42.4960  -44.3189    9.7206 C   0  0  0  0  0  0  0  0  0  0  0  0
   42.9015  -44.7506    8.4700 C   0  0  0  0  0  0  0  0  0  0  0  0
   42.1615  -45.6884    7.7431 C   0  0  0  0  0  0  0  0  0  0  0  0
   41.0072  -46.1681    8.3232 C   0  0  0  0  0  0  0  0  0  0  0  0
   42.4284  -44.1467    2.1901 N   0  0  0  0  0  0  0  0  0  0  0  0
   43.7749  -42.2226    0.3610 C   0  0  0  0  0  0  0  0  0  0  0  0
   44.4486  -41.3742   -0.5171 C   0  0  0  0  0  0  0  0  0  0  0  0
  1  2  1  0  0  0  0
  2  3  2  0  0  0  0
  3  4  1  0  0  0  0
  4  5  2  0  0  0  0
  5  6  1  0  0  0  0
  5 25  1  0  0  0  0
  6  7  2  0  0  0  0
  7  8  1  0  0  0  0
  8  9  1  0  0  0  0
  9 10  1  0  0  0  0
  9 24  2  0  0  0  0
 10 11  1  0  0  0  0
 11 12  1  0  0  0  0
 12 13  2  0  0  0  0
 12 14  1  0  0  0  0
 14 15  1  0  0  0  0
 15 16  2  0  0  0  0
 16 17  1  0  0  0  0
 17 18  1  0  0  0  0
 18 19  2  0  0  0  0
 19 20  1  0  0  0  0
 20 21  2  0  0  0  0
 21 22  1  0  0  0  0
 22 23  2  0  0  0  0
 23 15  1  0  0  0  0
 23 18  1  0  0  0  0
 24  6  1  0  0  0  0
 25 26  2  0  0  0  0
 26  2  1  0  0  0  0
M  END
>  <CHROM.1>
2.12073544,22.16877097,-159.44468789,88.25710211,114.85070984,42.33215493
-44.89415392,4.41261554,-0.93942755,0.74042700,1.50260204

>  <Name>
design_3

>  <RI>
0

>  <Rbt.Current_Directory>
/home/ziqiaoxu/icml18-jtnn/VAEdesign

>  <Rbt.Executable>
rbdock ($Id: //depot/dev/client3/rdock/2013.1/src/exe/rbdock.cxx#4 $)

>  <Rbt.Library>
libRbt.so (2013.1, Build901 2013/11/27)

>  <Rbt.Parameter_File>
/export/apps/rDock/src/rDock_2013.1_src//data/scripts/dock.prm

>  <Rbt.Receptor>
/home/ziqiaoxu/icml18-jtnn/VAEdesign/targets/RdRp-SARS-CoV-2/pocket_docking.prm

>  <SCORE>
-22.8882

>  <SCORE.INTER>
-21.4803

>  <SCORE.INTER.CONST>
1

>  <SCORE.INTER.POLAR>
-1.97897

>  <SCORE.INTER.REPUL>
0.00995542

>  <SCORE.INTER.ROT>
5

>  <SCORE.INTER.VDW>
-25.2015

>  <SCORE.INTER.norm>
-0.826164

>  <SCORE.INTRA>
-1.40789

>  <SCORE.INTRA.DIHEDRAL>
-0.411667

>  <SCORE.INTRA.DIHEDRAL.0>
4.36055

>  <SCORE.INTRA.POLAR>
0

>  <SCORE.INTRA.POLAR.0>
0

>  <SCORE.INTRA.REPUL>
0

>  <SCORE.INTRA.REPUL.0>
0

>  <SCORE.INTRA.VDW>
-1.20205

>  <SCORE.INTRA.VDW.0>
-1.22746

>  <SCORE.INTRA.norm>
-0.0541495

>  <SCORE.RESTR>
0

>  <SCORE.RESTR.CAVITY>
0

>  <SCORE.RESTR.norm>
0

>  <SCORE.SYSTEM>
0

>  <SCORE.SYSTEM.CONST>
0

>  <SCORE.SYSTEM.DIHEDRAL>
0

>  <SCORE.SYSTEM.norm>
0

>  <SCORE.heavy>
26

>  <SCORE.norm>
-0.880314

$$$$
design_5
 OpenBabel05252019093D

 26 28  0  0  0  0  0  0  0  0999 V2000
   38.2560  -46.9486    9.1352 C   0  0  0  0  0  0  0  0  0  0  0  0
   39.6034  -46.6129    9.6483 N   0  0  0  0  0  0  0  0  0  0  0  0
   40.1146  -45.3146    9.4700 C   0  0  0  0  0  0  0  0  0  0  0  0
   39.2007  -44.5475    8.8591 O   0  0  0  0  0  0  0  0  0  0  0  0
   41.3688  -44.7154    9.7966 C   0  0  0  0  0  0  0  0  0  0  0  0
   42.4330  -45.1006    8.8381 C   0  0  0  0  0  0  0  0  0  0  0  0
   42.0966  -45.8715    7.7244 C   0  0  0  0  0  0  0  0  0  0  0  0
   43.0774  -46.0219    6.7695 C   0  0  0  0  0  0  0  0  0  0  0  0
   44.3266  -45.5256    6.7516 C   0  0  0  0  0  0  0  0  0  0  0  0
   45.3401  -45.4398    5.8543 N   0  0  0  0  0  0  0  0  0  0  0  0
   46.6361  -44.9997    5.5612 C   0  0  0  0  0  0  0  0  0  0  0  0
   47.1973  -44.1977    6.3335 O   0  0  0  0  0  0  0  0  0  0  0  0
   47.1905  -45.5710    4.4086 N   0  0  0  0  0  0  0  0  0  0  0  0
   47.7130  -46.1093    3.3224 C   0  0  0  0  0  0  0  0  0  0  0  0
   47.3569  -45.8766    1.8776 C   0  0  0  0  0  0  0  0  0  0  0  0
   46.0737  -46.5084    1.4507 C   0  0  0  0  0  0  0  0  0  0  0  0
   44.8928  -46.0997    2.2465 C   0  0  0  0  0  0  0  0  0  0  0  0
   43.9090  -45.1714    1.6406 C   0  0  0  0  0  0  0  0  0  0  0  0
   43.6231  -45.4690    0.2212 C   0  0  0  0  0  0  0  0  0  0  0  0
   44.9374  -45.4713   -0.5417 C   0  0  0  0  0  0  0  0  0  0  0  0
   45.8626  -46.5418   -0.0114 C   0  0  0  0  0  0  0  0  0  0  0  0
   48.5683  -46.1210    1.0235 C   0  0  0  0  0  0  0  0  0  0  0  0
   48.6230  -44.6800    0.6136 C   0  0  0  0  0  0  0  0  0  0  0  0
   47.5119  -44.3963    1.5594 C   0  0  0  0  0  0  0  0  0  0  0  0
   44.5671  -44.7687    7.9300 C   0  0  0  0  0  0  0  0  0  0  0  0
   43.7167  -44.5290    8.9617 C   0  0  0  0  0  0  0  0  0  0  0  0
  1  2  1  0  0  0  0
  2  3  1  0  0  0  0
  3  4  2  0  0  0  0
  3  5  1  0  0  0  0
  5  6  1  0  0  0  0
  6  7  2  0  0  0  0
  7  8  1  0  0  0  0
  8  9  2  0  0  0  0
  9 10  1  0  0  0  0
  9 25  1  0  0  0  0
 10 11  1  0  0  0  0
 11 12  2  0  0  0  0
 11 13  1  0  0  0  0
 13 14  1  0  0  0  0
 14 15  1  0  0  0  0
 15 16  1  0  0  0  0
 15 22  1  0  0  0  0
 16 17  1  0  0  0  0
 17 18  1  0  0  0  0
 18 19  1  0  0  0  0
 19 20  1  0  0  0  0
 20 21  1  0  0  0  0
 21 16  1  0  0  0  0
 22 23  1  0  0  0  0
 23 24  1  0  0  0  0
 24 15  1  0  0  0  0
 25 26  2  0  0  0  0
 26  6  1  0  0  0  0
M  END
>  <CHROM.1>
77.29327747,4.89507046,178.37589461,-103.99275258,-74.11167918,56.69690287
44.37570035,-45.48593629,4.96783009,2.24420920,0.16114876,1.43885659

>  <Name>
design_5

>  <RI>
0

>  <Rbt.Current_Directory>
/home/ziqiaoxu/icml18-jtnn/VAEdesign

>  <Rbt.Executable>
rbdock ($Id: //depot/dev/client3/rdock/2013.1/src/exe/rbdock.cxx#4 $)

>  <Rbt.Library>
libRbt.so (2013.1, Build901 2013/11/27)

>  <Rbt.Parameter_File>
/export/apps/rDock/src/rDock_2013.1_src//data/scripts/dock.prm

>  <Rbt.Receptor>
/home/ziqiaoxu/icml18-jtnn/VAEdesign/targets/RdRp-SARS-CoV-2/pocket_docking.prm

>  <SCORE>
-23.5375

>  <SCORE.INTER>
-19.7082

>  <SCORE.INTER.CONST>
1

>  <SCORE.INTER.POLAR>
-1.73729

>  <SCORE.INTER.REPUL>
0

>  <SCORE.INTER.ROT>
6

>  <SCORE.INTER.VDW>
-25.2014

>  <SCORE.INTER.norm>
-0.758008

>  <SCORE.INTRA>
-3.82929

>  <SCORE.INTRA.DIHEDRAL>
-4.88414

>  <SCORE.INTRA.DIHEDRAL.0>
11.0264

>  <SCORE.INTRA.POLAR>
0

>  <SCORE.INTRA.POLAR.0>
0

>  <SCORE.INTRA.REPUL>
0

>  <SCORE.INTRA.REPUL.0>
0

>  <SCORE.INTRA.VDW>
-1.38723

>  <SCORE.INTRA.VDW.0>
1.9127

>  <SCORE.INTRA.norm>
-0.147281

>  <SCORE.RESTR>
0

>  <SCORE.RESTR.CAVITY>
0

>  <SCORE.RESTR.norm>
0

>  <SCORE.SYSTEM>
0

>  <SCORE.SYSTEM.CONST>
0

>  <SCORE.SYSTEM.DIHEDRAL>
0

>  <SCORE.SYSTEM.norm>
0

>  <SCORE.heavy>
26

>  <SCORE.norm>
-0.905288

$$$$
design_8
 OpenBabel05252019093D

 23 25  0  0  0  0  0  0  0  0999 V2000
   39.9401  -46.2373   10.2573 N   0  0  0  0  0  0  0  0  0  0  0  0
   40.1680  -45.9103    8.8590 C   0  0  0  0  0  0  0  0  0  0  0  0
   40.6026  -44.7557    8.6920 O   0  0  0  0  0  0  0  0  0  0  0  0
   39.8915  -46.8836    7.8361 C   0  0  0  0  0  0  0  0  0  0  0  0
   38.9145  -47.8386    8.1319 C   0  0  0  0  0  0  0  0  0  0  0  0
   38.5812  -48.8617    7.2793 C   0  0  0  0  0  0  0  0  0  0  0  0
   39.2340  -48.9594    6.0750 C   0  0  0  0  0  0  0  0  0  0  0  0
   40.2089  -48.0235    5.7528 C   0  0  0  0  0  0  0  0  0  0  0  0
   40.5375  -46.9881    6.6290 C   0  0  0  0  0  0  0  0  0  0  0  0
   41.4741  -46.0024    6.2301 N   0  0  0  0  0  0  0  0  0  0  0  0
   42.5406  -45.5237    7.0208 C   0  0  0  0  0  0  0  0  0  0  0  0
   42.8162  -45.8687    8.1549 O   0  0  0  0  0  0  0  0  0  0  0  0
   43.4103  -44.4727    6.3546 C   0  0  0  0  0  0  0  0  0  0  0  0
   44.6899  -45.1211    5.9536 C   0  0  0  0  0  0  0  0  0  0  0  0
   44.7295  -45.4247    4.4843 C   0  0  0  0  0  0  0  0  0  0  0  0
   43.7602  -45.3516    3.5913 N   0  0  0  0  0  0  0  0  0  0  0  0
   43.9980  -45.6624    2.3441 C   0  0  0  0  0  0  0  0  0  0  0  0
   43.0564  -45.6276    1.2947 C   0  0  0  0  0  0  0  0  0  0  0  0
   43.4341  -45.9756    0.0428 C   0  0  0  0  0  0  0  0  0  0  0  0
   44.7139  -46.3791   -0.3152 C   0  0  0  0  0  0  0  0  0  0  0  0
   45.6294  -46.4111    0.7142 C   0  0  0  0  0  0  0  0  0  0  0  0
   45.2684  -46.0562    2.0220 C   0  0  0  0  0  0  0  0  0  0  0  0
   46.0514  -45.9561    3.5414 S   0  0  0  0  0  0  0  0  0  0  0  0
  1  2  1  0  0  0  0
  2  3  2  0  0  0  0
  2  4  1  0  0  0  0
  4  5  2  0  0  0  0
  5  6  1  0  0  0  0
  6  7  2  0  0  0  0
  7  8  1  0  0  0  0
  8  9  2  0  0  0  0
  9 10  1  0  0  0  0
  9  4  1  0  0  0  0
 10 11  1  0  0  0  0
 11 12  2  0  0  0  0
 11 13  1  0  0  0  0
 13 14  1  0  0  0  0
 14 15  1  0  0  0  0
 15 16  2  0  0  0  0
 16 17  1  0  0  0  0
 17 18  2  0  0  0  0
 18 19  1  0  0  0  0
 19 20  2  0  0  0  0
 20 21  1  0  0  0  0
 21 22  2  0  0  0  0
 22 23  1  0  0  0  0
 22 17  1  0  0  0  0
 23 15  1  0  0  0  0
M  END
>  <CHROM.1>
26.93218519,49.77277582,-104.81046204,102.37446896,-9.35955056,42.52313931
-46.22750710,5.26110864,-2.33004181,-0.51648093,-1.87095035

>  <Name>
design_8

>  <RI>
0

>  <Rbt.Current_Directory>
/home/ziqiaoxu/icml18-jtnn/VAEdesign

>  <Rbt.Executable>
rbdock ($Id: //depot/dev/client3/rdock/2013.1/src/exe/rbdock.cxx#4 $)

>  <Rbt.Library>
libRbt.so (2013.1, Build901 2013/11/27)

>  <Rbt.Parameter_File>
/export/apps/rDock/src/rDock_2013.1_src//data/scripts/dock.prm

>  <Rbt.Receptor>
/home/ziqiaoxu/icml18-jtnn/VAEdesign/targets/RdRp-SARS-CoV-2/pocket_docking.prm

>  <SCORE>
-18.166

>  <SCORE.INTER>
-22.8841

>  <SCORE.INTER.CONST>
1

>  <SCORE.INTER.POLAR>
-2.37752

>  <SCORE.INTER.REPUL>
0

>  <SCORE.INTER.ROT>
5

>  <SCORE.INTER.VDW>
-25.2006

>  <SCORE.INTER.norm>
-0.994962

>  <SCORE.INTRA>
4.71813

>  <SCORE.INTRA.DIHEDRAL>
13.8054

>  <SCORE.INTRA.DIHEDRAL.0>
3.85758

>  <SCORE.INTRA.POLAR>
0

>  <SCORE.INTRA.POLAR.0>
0

>  <SCORE.INTRA.REPUL>
0

>  <SCORE.INTRA.REPUL.0>
0

>  <SCORE.INTRA.VDW>
-2.18456

>  <SCORE.INTRA.VDW.0>
0.879967

>  <SCORE.INTRA.norm>
0.205136

>  <SCORE.RESTR>
0

>  <SCORE.RESTR.CAVITY>
0

>  <SCORE.RESTR.norm>
0

>  <SCORE.SYSTEM>
0

>  <SCORE.SYSTEM.CONST>
0

>  <SCORE.SYSTEM.DIHEDRAL>
0

>  <SCORE.SYSTEM.norm>
0

>  <SCORE.heavy>
23

>  <SCORE.norm>
-0.789826

$$$$
design_6
 OpenBabel05252019093D

 22 23  0  0  0  0  0  0  0  0999 V2000
   39.2139  -48.0168    7.4222 C   0  0  0  0  0  0  0  0  0  0  0  0
   39.9466  -47.0090    8.2302 C   0  0  0  0  0  0  0  0  0  0  0  0
   39.3717  -46.5816    9.4103 C   0  0  0  0  0  0  0  0  0  0  0  0
   40.0134  -45.6468   10.1957 C   0  0  0  0  0  0  0  0  0  0  0  0
   41.2511  -45.1207    9.8094 C   0  0  0  0  0  0  0  0  0  0  0  0
   41.8459  -45.5281    8.6401 C   0  0  0  0  0  0  0  0  0  0  0  0
   43.1450  -45.0118    8.1694 C   0  0  0  0  0  0  0  0  0  0  0  0
   43.6894  -44.1218    8.8894 O   0  0  0  0  0  0  0  0  0  0  0  0
   43.7013  -45.5175    6.9798 N   0  0  0  0  0  0  0  0  0  0  0  0
   44.9481  -45.0289    6.4929 C   0  0  0  0  0  0  0  0  0  0  0  0
   44.9397  -45.1108    4.9862 C   0  0  0  0  0  0  0  0  0  0  0  0
   44.1514  -44.3224    4.4055 O   0  0  0  0  0  0  0  0  0  0  0  0
   45.7876  -46.0362    4.3282 N   0  0  0  0  0  0  0  0  0  0  0  0
   45.9196  -46.2573    2.9452 C   0  0  0  0  0  0  0  0  0  0  0  0
   44.9701  -45.9663    1.9982 C   0  0  0  0  0  0  0  0  0  0  0  0
   45.2034  -46.2275    0.6407 C   0  0  0  0  0  0  0  0  0  0  0  0
   44.1707  -45.9093   -0.3754 C   0  0  0  0  0  0  0  0  0  0  0  0
   46.3838  -46.7811    0.2103 C   0  0  0  0  0  0  0  0  0  0  0  0
   47.3402  -47.0772    1.1388 C   0  0  0  0  0  0  0  0  0  0  0  0
   47.1123  -46.8219    2.4671 C   0  0  0  0  0  0  0  0  0  0  0  0
   48.1633  -47.1484    3.4780 C   0  0  0  0  0  0  0  0  0  0  0  0
   41.1517  -46.4761    7.8847 C   0  0  0  0  0  0  0  0  0  0  0  0
  1  2  1  0  0  0  0
  2  3  2  0  0  0  0
  3  4  1  0  0  0  0
  4  5  2  0  0  0  0
  5  6  1  0  0  0  0
  6  7  1  0  0  0  0
  6 22  2  0  0  0  0
  7  8  2  0  0  0  0
  7  9  1  0  0  0  0
  9 10  1  0  0  0  0
 10 11  1  0  0  0  0
 11 12  2  0  0  0  0
 11 13  1  0  0  0  0
 13 14  1  0  0  0  0
 14 15  2  0  0  0  0
 15 16  1  0  0  0  0
 16 17  1  0  0  0  0
 16 18  2  0  0  0  0
 18 19  1  0  0  0  0
 19 20  2  0  0  0  0
 20 21  1  0  0  0  0
 20 14  1  0  0  0  0
 22  2  1  0  0  0  0
M  END
>  <CHROM.1>
-2.01752620,-149.07005324,68.57232875,-23.45583582,43.76343949,-45.97101177
5.38006108,2.23420754,0.29068751,1.29076116

>  <Name>
design_6

>  <RI>
0

>  <Rbt.Current_Directory>
/home/ziqiaoxu/icml18-jtnn/VAEdesign

>  <Rbt.Executable>
rbdock ($Id: //depot/dev/client3/rdock/2013.1/src/exe/rbdock.cxx#4 $)

>  <Rbt.Library>
libRbt.so (2013.1, Build901 2013/11/27)

>  <Rbt.Parameter_File>
/export/apps/rDock/src/rDock_2013.1_src//data/scripts/dock.prm

>  <Rbt.Receptor>
/home/ziqiaoxu/icml18-jtnn/VAEdesign/targets/RdRp-SARS-CoV-2/pocket_docking.prm

>  <SCORE>
-19.5197

>  <SCORE.INTER>
-18.6072

>  <SCORE.INTER.CONST>
1

>  <SCORE.INTER.POLAR>
-0.825607

>  <SCORE.INTER.REPUL>
0

>  <SCORE.INTER.ROT>
4

>  <SCORE.INTER.VDW>
-25.2001

>  <SCORE.INTER.norm>
-0.845782

>  <SCORE.INTRA>
-0.912503

>  <SCORE.INTRA.DIHEDRAL>
1.49487

>  <SCORE.INTRA.DIHEDRAL.0>
3.08085

>  <SCORE.INTRA.POLAR>
0

>  <SCORE.INTRA.POLAR.0>
0

>  <SCORE.INTRA.REPUL>
0

>  <SCORE.INTRA.REPUL.0>
0

>  <SCORE.INTRA.VDW>
-1.65994

>  <SCORE.INTRA.VDW.0>
1.91354

>  <SCORE.INTRA.norm>
-0.0414774

>  <SCORE.RESTR>
0

>  <SCORE.RESTR.CAVITY>
0

>  <SCORE.RESTR.norm>
0

>  <SCORE.SYSTEM>
0

>  <SCORE.SYSTEM.CONST>
0

>  <SCORE.SYSTEM.DIHEDRAL>
0

>  <SCORE.SYSTEM.norm>
0

>  <SCORE.heavy>
22

>  <SCORE.norm>
-0.887259

$$$$
design_3
 OpenBabel05252019093D

 23 24  0  0  0  0  0  0  0  0999 V2000
   39.8252  -46.2756   10.4588 N   0  0  0  0  0  0  0  0  0  0  0  0
   39.8756  -45.7285    9.1613 C   0  0  0  0  0  0  0  0  0  0  0  0
   39.9732  -44.4689    9.0706 O   0  0  0  0  0  0  0  0  0  0  0  0
   39.8181  -46.5739    7.9686 C   0  0  0  0  0  0  0  0  0  0  0  0
   39.5765  -47.9037    8.0990 C   0  0  0  0  0  0  0  0  0  0  0  0
   39.5247  -48.6904    6.9663 C   0  0  0  0  0  0  0  0  0  0  0  0
   39.7194  -48.0984    5.7493 C   0  0  0  0  0  0  0  0  0  0  0  0
   39.9710  -46.7330    5.5648 C   0  0  0  0  0  0  0  0  0  0  0  0
   40.1715  -46.2402    4.2523 N   0  0  0  0  0  0  0  0  0  0  0  0
   39.9131  -44.9409    3.8014 C   0  0  0  0  0  0  0  0  0  0  0  0
   39.4623  -44.0556    4.5261 O   0  0  0  0  0  0  0  0  0  0  0  0
   40.1956  -44.5860    2.3526 C   0  0  0  0  0  0  0  0  0  0  0  0
   41.3648  -43.6626    2.2837 C   0  0  0  0  0  0  0  0  0  0  0  0
   42.6285  -44.4937    2.3205 C   0  0  0  0  0  0  0  0  0  0  0  0
   42.7109  -45.3483    1.1791 O   0  0  0  0  0  0  0  0  0  0  0  0
   43.9600  -45.8450    0.8620 C   0  0  0  0  0  0  0  0  0  0  0  0
   44.4697  -45.9468   -0.4166 C   0  0  0  0  0  0  0  0  0  0  0  0
   45.7248  -46.4518   -0.6667 C   0  0  0  0  0  0  0  0  0  0  0  0
   46.5409  -46.8838    0.3511 C   0  0  0  0  0  0  0  0  0  0  0  0
   46.0460  -46.7891    1.6402 C   0  0  0  0  0  0  0  0  0  0  0  0
   47.1787  -47.3888    3.0551 Br  0  0  0  0  0  0  0  0  0  0  0  0
   44.7772  -46.2776    1.8818 C   0  0  0  0  0  0  0  0  0  0  0  0
   40.0162  -45.9837    6.7045 C   0  0  0  0  0  0  0  0  0  0  0  0
  1  2  1  0  0  0  0
  2  3  2  0  0  0  0
  2  4  1  0  0  0  0
  4  5  2  0  0  0  0
  5  6  1  0  0  0  0
  6  7  2  0  0  0  0
  7  8  1  0  0  0  0
  8  9  1  0  0  0  0
  8 23  2  0  0  0  0
  9 10  1  0  0  0  0
 10 11  2  0  0  0  0
 10 12  1  0  0  0  0
 12 13  1  0  0  0  0
 13 14  1  0  0  0  0
 14 15  1  0  0  0  0
 15 16  1  0  0  0  0
 16 17  2  0  0  0  0
 17 18  1  0  0  0  0
 18 19  2  0  0  0  0
 19 20  1  0  0  0  0
 20 21  1  0  0  0  0
 20 22  2  0  0  0  0
 22 16  1  0  0  0  0
 23  4  1  0  0  0  0
M  END
>  <CHROM.1>
6.71068313,152.87501117,-109.99886549,83.50854429,63.15763115,160.58333926
-138.44273355,42.77509459,-46.25143515,4.05913678,-2.47116885,0.37244276
-1.23167316

>  <Name>
design_3

>  <RI>
0

>  <Rbt.Current_Directory>
/home/ziqiaoxu/icml18-jtnn/VAEdesign

>  <Rbt.Executable>
rbdock ($Id: //depot/dev/client3/rdock/2013.1/src/exe/rbdock.cxx#4 $)

>  <Rbt.Library>
libRbt.so (2013.1, Build901 2013/11/27)

>  <Rbt.Parameter_File>
/export/apps/rDock/src/rDock_2013.1_src//data/scripts/dock.prm

>  <Rbt.Receptor>
/home/ziqiaoxu/icml18-jtnn/VAEdesign/targets/RdRp-SARS-CoV-2/pocket_docking.prm

>  <SCORE>
-21.9701

>  <SCORE.INTER>
-24.5434

>  <SCORE.INTER.CONST>
1

>  <SCORE.INTER.POLAR>
-3.45746

>  <SCORE.INTER.REPUL>
0.00169291

>  <SCORE.INTER.ROT>
7

>  <SCORE.INTER.VDW>
-25.1965

>  <SCORE.INTER.norm>
-1.06711

>  <SCORE.INTRA>
2.57332

>  <SCORE.INTRA.DIHEDRAL>
9.54454

>  <SCORE.INTRA.DIHEDRAL.0>
1.66091

>  <SCORE.INTRA.POLAR>
0

>  <SCORE.INTRA.POLAR.0>
0

>  <SCORE.INTRA.REPUL>
0

>  <SCORE.INTRA.REPUL.0>
0

>  <SCORE.INTRA.VDW>
-2.19895

>  <SCORE.INTRA.VDW.0>
2.54037

>  <SCORE.INTRA.norm>
0.111883

>  <SCORE.RESTR>
0

>  <SCORE.RESTR.CAVITY>
0

>  <SCORE.RESTR.norm>
0

>  <SCORE.SYSTEM>
0

>  <SCORE.SYSTEM.CONST>
0

>  <SCORE.SYSTEM.DIHEDRAL>
0

>  <SCORE.SYSTEM.norm>
0

>  <SCORE.heavy>
23

>  <SCORE.norm>
-0.955222

$$$$
design_16
 OpenBabel05252019093D

 23 24  0  0  0  0  0  0  0  0999 V2000
   40.1590  -36.6225    4.7254 C   0  0  0  0  0  0  0  0  0  0  0  0
   39.7419  -37.7147    5.6490 C   0  0  0  0  0  0  0  0  0  0  0  0
   38.6712  -38.5645    5.4113 C   0  0  0  0  0  0  0  0  0  0  0  0
   38.3077  -39.5688    6.2731 C   0  0  0  0  0  0  0  0  0  0  0  0
   39.0038  -39.7766    7.4287 C   0  0  0  0  0  0  0  0  0  0  0  0
   38.6509  -41.0529    8.5565 S   0  0  0  0  0  0  0  0  0  0  0  0
   39.9288  -41.5135    9.6699 C   0  0  0  0  0  0  0  0  0  0  0  0
   39.3230  -42.8771   10.5596 C   0  0  0  0  0  0  0  0  0  0  0  0
   38.7598  -42.3096   11.3923 O   0  0  0  0  0  0  0  0  0  0  0  0
   39.7892  -43.8922    9.8771 N   0  0  0  0  0  0  0  0  0  0  0  0
   40.2772  -44.9594    9.1620 C   0  0  0  0  0  0  0  0  0  0  0  0
   39.5378  -46.0305    8.6358 C   0  0  0  0  0  0  0  0  0  0  0  0
   39.9971  -46.9898    7.7934 C   0  0  0  0  0  0  0  0  0  0  0  0
   39.0612  -48.3112    7.1389 S   0  0  0  0  0  0  0  0  0  0  0  0
   37.8976  -47.8058    5.9164 C   0  0  0  0  0  0  0  0  0  0  0  0
   38.2689  -48.9419    8.2818 O   0  0  0  0  0  0  0  0  0  0  0  0
   39.9795  -49.3160    6.5158 O   0  0  0  0  0  0  0  0  0  0  0  0
   41.3363  -46.9100    7.4129 C   0  0  0  0  0  0  0  0  0  0  0  0
   42.0996  -45.8986    7.8893 C   0  0  0  0  0  0  0  0  0  0  0  0
   41.6402  -44.9558    8.7212 C   0  0  0  0  0  0  0  0  0  0  0  0
   42.6065  -43.9470    9.2139 C   0  0  0  0  0  0  0  0  0  0  0  0
   40.0908  -38.9213    7.6725 C   0  0  0  0  0  0  0  0  0  0  0  0
   40.4487  -37.9179    6.8047 C   0  0  0  0  0  0  0  0  0  0  0  0
  1  2  1  0  0  0  0
  2  3  2  0  0  0  0
  3  4  1  0  0  0  0
  4  5  2  0  0  0  0
  5  6  1  0  0  0  0
  5 22  1  0  0  0  0
  6  7  1  0  0  0  0
  7  8  1  0  0  0  0
  8  9  2  0  0  0  0
  8 10  1  0  0  0  0
 10 11  1  0  0  0  0
 11 12  2  0  0  0  0
 12 13  1  0  0  0  0
 13 14  1  0  0  0  0
 13 18  2  0  0  0  0
 14 15  1  0  0  0  0
 14 16  2  0  0  0  0
 14 17  2  0  0  0  0
 18 19  1  0  0  0  0
 19 20  2  0  0  0  0
 20 21  1  0  0  0  0
 20 11  1  0  0  0  0
 22 23  2  0  0  0  0
 23  2  1  0  0  0  0
M  END
>  <CHROM.1>
159.80397445,-175.45986842,-85.81626511,45.17402780,72.12048850,39.68458728
-43.49943497,7.86856024,1.62546947,-1.39079105,-0.03011406

>  <Name>
design_16

>  <RI>
0

>  <Rbt.Current_Directory>
/home/ziqiaoxu/icml18-jtnn/VAEdesign

>  <Rbt.Executable>
rbdock ($Id: //depot/dev/client3/rdock/2013.1/src/exe/rbdock.cxx#4 $)

>  <Rbt.Library>
libRbt.so (2013.1, Build901 2013/11/27)

>  <Rbt.Parameter_File>
/export/apps/rDock/src/rDock_2013.1_src//data/scripts/dock.prm

>  <Rbt.Receptor>
/home/ziqiaoxu/icml18-jtnn/VAEdesign/targets/RdRp-SARS-CoV-2/pocket_docking.prm

>  <SCORE>
-22.5997

>  <SCORE.INTER>
-18.2599

>  <SCORE.INTER.CONST>
1

>  <SCORE.INTER.POLAR>
-1.01921

>  <SCORE.INTER.REPUL>
0

>  <SCORE.INTER.ROT>
5

>  <SCORE.INTER.VDW>
-25.1946

>  <SCORE.INTER.norm>
-0.79391

>  <SCORE.INTRA>
-4.34474

>  <SCORE.INTRA.DIHEDRAL>
-0.150675

>  <SCORE.INTRA.DIHEDRAL.0>
8.81818

>  <SCORE.INTRA.POLAR>
0

>  <SCORE.INTRA.POLAR.0>
0

>  <SCORE.INTRA.REPUL>
0

>  <SCORE.INTRA.REPUL.0>
0

>  <SCORE.INTRA.VDW>
-4.26941

>  <SCORE.INTRA.VDW.0>
2.66084

>  <SCORE.INTRA.norm>
-0.188902

>  <SCORE.RESTR>
0.00496195

>  <SCORE.RESTR.CAVITY>
0.00496195

>  <SCORE.RESTR.norm>
0.000215737

>  <SCORE.SYSTEM>
0

>  <SCORE.SYSTEM.CONST>
0

>  <SCORE.SYSTEM.DIHEDRAL>
0

>  <SCORE.SYSTEM.norm>
0

>  <SCORE.heavy>
23

>  <SCORE.norm>
-0.982596

$$$$
design_17
 OpenBabel05252019093D

 26 27  0  0  0  0  0  0  0  0999 V2000
   40.0326  -43.1465   10.5544 C   0  0  0  0  0  0  0  0  0  0  0  0
   40.6071  -44.5446   10.6883 C   0  0  0  0  0  0  0  0  0  0  0  0
   40.3580  -45.2831    9.4540 C   0  0  0  0  0  0  0  0  0  0  0  0
   40.3002  -44.6861    8.3370 O   0  0  0  0  0  0  0  0  0  0  0  0
   40.1839  -46.6938    9.4755 N   0  0  0  0  0  0  0  0  0  0  0  0
   39.9603  -47.3184    8.1971 C   0  0  0  0  0  0  0  0  0  0  0  0
   39.0330  -48.2797    8.0372 C   0  0  0  0  0  0  0  0  0  0  0  0
   38.7431  -48.8224    6.7901 C   0  0  0  0  0  0  0  0  0  0  0  0
   39.4447  -48.3237    5.7262 C   0  0  0  0  0  0  0  0  0  0  0  0
   40.4279  -47.2994    5.8736 C   0  0  0  0  0  0  0  0  0  0  0  0
   40.9119  -46.7751    4.6882 N   0  0  0  0  0  0  0  0  0  0  0  0
   42.0297  -45.8327    4.5238 C   0  0  0  0  0  0  0  0  0  0  0  0
   42.6050  -45.6737    5.6818 O   0  0  0  0  0  0  0  0  0  0  0  0
   42.3209  -45.2773    3.4215 N   0  0  0  0  0  0  0  0  0  0  0  0
   42.6475  -44.6554    2.1886 C   0  0  0  0  0  0  0  0  0  0  0  0
   43.6421  -45.0608    1.2357 C   0  0  0  0  0  0  0  0  0  0  0  0
   43.8576  -46.2404    0.6116 C   0  0  0  0  0  0  0  0  0  0  0  0
   44.8555  -46.4065   -0.3512 C   0  0  0  0  0  0  0  0  0  0  0  0
   45.6799  -45.3704   -0.7189 C   0  0  0  0  0  0  0  0  0  0  0  0
   45.4930  -44.1557   -0.1044 C   0  0  0  0  0  0  0  0  0  0  0  0
   46.2887  -42.9867   -0.4445 N   0  0  0  0  0  0  0  0  0  0  0  0
   46.0809  -41.6949    0.1139 C   0  0  0  0  0  0  0  0  0  0  0  0
   47.4090  -41.0533    0.4703 C   0  0  0  0  0  0  0  0  0  0  0  0
   45.3752  -40.8249   -0.9395 C   0  0  0  0  0  0  0  0  0  0  0  0
   44.5293  -44.0048    0.8147 C   0  0  0  0  0  0  0  0  0  0  0  0
   40.6867  -46.8057    7.1035 C   0  0  0  0  0  0  0  0  0  0  0  0
  1  2  1  0  0  0  0
  2  3  1  0  0  0  0
  3  4  2  0  0  0  0
  3  5  1  0  0  0  0
  5  6  1  0  0  0  0
  6  7  2  0  0  0  0
  7  8  1  0  0  0  0
  8  9  2  0  0  0  0
  9 10  1  0  0  0  0
 10 11  1  0  0  0  0
 10 26  2  0  0  0  0
 11 12  1  0  0  0  0
 12 13  2  0  0  0  0
 12 14  1  0  0  0  0
 14 15  1  0  0  0  0
 15 16  1  0  0  0  0
 16 17  2  0  0  0  0
 17 18  1  0  0  0  0
 18 19  2  0  0  0  0
 19 20  1  0  0  0  0
 20 21  1  0  0  0  0
 20 25  2  0  0  0  0
 21 22  1  0  0  0  0
 22 23  1  0  0  0  0
 22 24  1  0  0  0  0
 25 16  1  0  0  0  0
 26  6  1  0  0  0  0
M  END
>  <CHROM.1>
30.66672969,-137.30997284,-172.28914544,84.50883291,53.64884306,176.47615153
137.05511189,42.46414048,-45.20605587,4.31748065,-2.70677331,-0.95554168
-2.28687473

>  <Name>
design_17

>  <RI>
0

>  <Rbt.Current_Directory>
/home/ziqiaoxu/icml18-jtnn/VAEdesign

>  <Rbt.Executable>
rbdock ($Id: //depot/dev/client3/rdock/2013.1/src/exe/rbdock.cxx#4 $)

>  <Rbt.Library>
libRbt.so (2013.1, Build901 2013/11/27)

>  <Rbt.Parameter_File>
/export/apps/rDock/src/rDock_2013.1_src//data/scripts/dock.prm

>  <Rbt.Receptor>
/home/ziqiaoxu/icml18-jtnn/VAEdesign/targets/RdRp-SARS-CoV-2/pocket_docking.prm

>  <SCORE>
-30.5893

>  <SCORE.INTER>
-24.1404

>  <SCORE.INTER.CONST>
1

>  <SCORE.INTER.POLAR>
-3.33704

>  <SCORE.INTER.REPUL>
0

>  <SCORE.INTER.ROT>
7

>  <SCORE.INTER.VDW>
-25.1944

>  <SCORE.INTER.norm>
-0.928476

>  <SCORE.INTRA>
-6.44891

>  <SCORE.INTRA.DIHEDRAL>
-13.6075

>  <SCORE.INTRA.DIHEDRAL.0>
25.4364

>  <SCORE.INTRA.POLAR>
0

>  <SCORE.INTRA.POLAR.0>
0

>  <SCORE.INTRA.REPUL>
0

>  <SCORE.INTRA.REPUL.0>
0

>  <SCORE.INTRA.VDW>
0.354833

>  <SCORE.INTRA.VDW.0>
3.24455

>  <SCORE.INTRA.norm>
-0.248035

>  <SCORE.RESTR>
0

>  <SCORE.RESTR.CAVITY>
0

>  <SCORE.RESTR.norm>
0

>  <SCORE.SYSTEM>
0

>  <SCORE.SYSTEM.CONST>
0

>  <SCORE.SYSTEM.DIHEDRAL>
0

>  <SCORE.SYSTEM.norm>
0

>  <SCORE.heavy>
26

>  <SCORE.norm>
-1.17651

$$$$
design_10
 OpenBabel05252019093D

 27 29  0  0  0  0  0  0  0  0999 V2000
   42.6059  -41.0657    1.9539 O   0  0  0  0  0  0  0  0  0  0  0  0
   43.1882  -41.5013    0.9257 C   0  0  0  0  0  0  0  0  0  0  0  0
   43.1680  -42.8569    0.5316 N   0  0  0  0  0  0  0  0  0  0  0  0
   42.4655  -43.8300    1.3226 C   0  0  0  0  0  0  0  0  0  0  0  0
   43.0369  -45.1999    1.0369 C   0  0  0  0  0  0  0  0  0  0  0  0
   43.6466  -45.6621    2.3512 C   0  0  0  0  0  0  0  0  0  0  0  0
   42.7212  -45.9833    3.3703 N   0  0  0  0  0  0  0  0  0  0  0  0
   42.9872  -45.7243    4.7290 C   0  0  0  0  0  0  0  0  0  0  0  0
   44.1012  -45.1777    5.0356 O   0  0  0  0  0  0  0  0  0  0  0  0
   42.0645  -46.0422    5.8257 C   0  0  0  0  0  0  0  0  0  0  0  0
   42.2133  -45.4118    7.0495 C   0  0  0  0  0  0  0  0  0  0  0  0
   41.3381  -45.7226    8.0679 C   0  0  0  0  0  0  0  0  0  0  0  0
   41.4556  -45.1157    9.2978 C   0  0  0  0  0  0  0  0  0  0  0  0
   40.5958  -45.4076   10.3303 C   0  0  0  0  0  0  0  0  0  0  0  0
   39.5974  -46.3376   10.1000 C   0  0  0  0  0  0  0  0  0  0  0  0
   39.4303  -46.9779    8.8894 C   0  0  0  0  0  0  0  0  0  0  0  0
   40.3307  -46.6446    7.8745 C   0  0  0  0  0  0  0  0  0  0  0  0
   40.2034  -47.2572    6.6503 C   0  0  0  0  0  0  0  0  0  0  0  0
   39.2913  -48.1013    6.4528 O   0  0  0  0  0  0  0  0  0  0  0  0
   41.0863  -46.9293    5.6583 N   0  0  0  0  0  0  0  0  0  0  0  0
   43.9107  -40.5349    0.1204 C   0  0  0  0  0  0  0  0  0  0  0  0
   44.7630  -40.9706   -0.8632 C   0  0  0  0  0  0  0  0  0  0  0  0
   45.4408  -40.0159   -1.6356 C   0  0  0  0  0  0  0  0  0  0  0  0
   45.2216  -38.6874   -1.3729 C   0  0  0  0  0  0  0  0  0  0  0  0
   45.8567  -37.7549   -2.0964 F   0  0  0  0  0  0  0  0  0  0  0  0
   44.3598  -38.2556   -0.3781 C   0  0  0  0  0  0  0  0  0  0  0  0
   43.6979  -39.1886    0.3758 C   0  0  0  0  0  0  0  0  0  0  0  0
  1  2  2  0  0  0  0
  2  3  1  0  0  0  0
  2 21  1  0  0  0  0
  3  4  1  0  0  0  0
  4  5  1  0  0  0  0
  5  6  1  0  0  0  0
  6  7  1  0  0  0  0
  7  8  1  0  0  0  0
  8  9  2  0  0  0  0
  8 10  1  0  0  0  0
 10 11  2  0  0  0  0
 11 12  1  0  0  0  0
 12 13  2  0  0  0  0
 13 14  1  0  0  0  0
 14 15  2  0  0  0  0
 15 16  1  0  0  0  0
 16 17  2  0  0  0  0
 17 18  1  0  0  0  0
 17 12  1  0  0  0  0
 18 19  2  0  0  0  0
 18 20  1  0  0  0  0
 20 10  1  0  0  0  0
 21 22  2  0  0  0  0
 22 23  1  0  0  0  0
 23 24  2  0  0  0  0
 24 25  1  0  0  0  0
 24 26  1  0  0  0  0
 26 27  2  0  0  0  0
 27 21  1  0  0  0  0
M  END
>  <CHROM.1>
-157.32287426,115.98924827,70.47352426,-144.80899950,-160.75027293,168.04309422
42.59000033,-43.74831532,3.64462152,0.08882886,1.22361431,0.56778573

>  <Name>
design_10

>  <RI>
0

>  <Rbt.Current_Directory>
/home/ziqiaoxu/icml18-jtnn/VAEdesign

>  <Rbt.Executable>
rbdock ($Id: //depot/dev/client3/rdock/2013.1/src/exe/rbdock.cxx#4 $)

>  <Rbt.Library>
libRbt.so (2013.1, Build901 2013/11/27)

>  <Rbt.Parameter_File>
/export/apps/rDock/src/rDock_2013.1_src//data/scripts/dock.prm

>  <Rbt.Receptor>
/home/ziqiaoxu/icml18-jtnn/VAEdesign/targets/RdRp-SARS-CoV-2/pocket_docking.prm

>  <SCORE>
-18.7007

>  <SCORE.INTER>
-20.7458

>  <SCORE.INTER.CONST>
1

>  <SCORE.INTER.POLAR>
-2.04551

>  <SCORE.INTER.REPUL>
0

>  <SCORE.INTER.ROT>
6

>  <SCORE.INTER.VDW>
-25.1911

>  <SCORE.INTER.norm>
-0.768364

>  <SCORE.INTRA>
2.04511

>  <SCORE.INTRA.DIHEDRAL>
5.62219

>  <SCORE.INTRA.DIHEDRAL.0>
4.59806

>  <SCORE.INTRA.POLAR>
0

>  <SCORE.INTRA.POLAR.0>
0

>  <SCORE.INTRA.REPUL>
0

>  <SCORE.INTRA.REPUL.0>
0

>  <SCORE.INTRA.VDW>
-0.765985

>  <SCORE.INTRA.VDW.0>
0.556771

>  <SCORE.INTRA.norm>
0.0757448

>  <SCORE.RESTR>
0

>  <SCORE.RESTR.CAVITY>
0

>  <SCORE.RESTR.norm>
0

>  <SCORE.SYSTEM>
0

>  <SCORE.SYSTEM.CONST>
0

>  <SCORE.SYSTEM.DIHEDRAL>
0

>  <SCORE.SYSTEM.norm>
0

>  <SCORE.heavy>
27

>  <SCORE.norm>
-0.692619

$$$$
design_2
 OpenBabel05252019093D

 26 28  0  0  0  0  0  0  0  0999 V2000
   40.1117  -46.3299   10.4286 N   0  0  0  0  0  0  0  0  0  0  0  0
   40.6702  -46.0312    9.1414 C   0  0  0  0  0  0  0  0  0  0  0  0
   41.6392  -45.2496    9.0482 O   0  0  0  0  0  0  0  0  0  0  0  0
   40.0789  -46.6593    7.9706 C   0  0  0  0  0  0  0  0  0  0  0  0
   39.2950  -47.7684    8.1497 C   0  0  0  0  0  0  0  0  0  0  0  0
   38.7023  -48.4174    7.0974 C   0  0  0  0  0  0  0  0  0  0  0  0
   38.9215  -47.9086    5.8047 C   0  0  0  0  0  0  0  0  0  0  0  0
   39.6950  -46.8049    5.5717 C   0  0  0  0  0  0  0  0  0  0  0  0
   39.9380  -46.2641    4.3108 N   0  0  0  0  0  0  0  0  0  0  0  0
   40.6739  -45.1046    3.9719 C   0  0  0  0  0  0  0  0  0  0  0  0
   41.2462  -44.3500    4.7770 O   0  0  0  0  0  0  0  0  0  0  0  0
   40.8082  -44.7019    2.5209 C   0  0  0  0  0  0  0  0  0  0  0  0
   42.0848  -44.2882    2.1754 O   0  0  0  0  0  0  0  0  0  0  0  0
   42.4390  -43.0713    1.6283 C   0  0  0  0  0  0  0  0  0  0  0  0
   41.8691  -41.8708    1.9647 C   0  0  0  0  0  0  0  0  0  0  0  0
   42.2973  -40.7206    1.3629 C   0  0  0  0  0  0  0  0  0  0  0  0
   43.3062  -40.7382    0.4094 C   0  0  0  0  0  0  0  0  0  0  0  0
   43.8628  -41.9678    0.0912 C   0  0  0  0  0  0  0  0  0  0  0  0
   43.4629  -43.1469    0.6709 C   0  0  0  0  0  0  0  0  0  0  0  0
   44.0621  -44.4066    0.3151 C   0  0  0  0  0  0  0  0  0  0  0  0
   45.4608  -44.4467    0.3126 C   0  0  0  0  0  0  0  0  0  0  0  0
   46.1661  -45.5868   -0.0101 C   0  0  0  0  0  0  0  0  0  0  0  0
   45.4634  -46.7253   -0.3412 C   0  0  0  0  0  0  0  0  0  0  0  0
   44.0856  -46.7037   -0.3439 C   0  0  0  0  0  0  0  0  0  0  0  0
   43.3981  -45.5466   -0.0163 C   0  0  0  0  0  0  0  0  0  0  0  0
   40.2700  -46.1917    6.6942 C   0  0  0  0  0  0  0  0  0  0  0  0
  1  2  1  0  0  0  0
  2  3  2  0  0  0  0
  2  4  1  0  0  0  0
  4  5  2  0  0  0  0
  5  6  1  0  0  0  0
  6  7  2  0  0  0  0
  7  8  1  0  0  0  0
  8  9  1  0  0  0  0
  8 26  2  0  0  0  0
  9 10  1  0  0  0  0
 10 11  2  0  0  0  0
 10 12  1  0  0  0  0
 12 13  1  0  0  0  0
 13 14  1  0  0  0  0
 14 15  2  0  0  0  0
 15 16  1  0  0  0  0
 16 17  2  0  0  0  0
 17 18  1  0  0  0  0
 18 19  2  0  0  0  0
 19 20  1  0  0  0  0
 19 14  1  0  0  0  0
 20 21  2  0  0  0  0
 21 22  1  0  0  0  0
 22 23  2  0  0  0  0
 23 24  1  0  0  0  0
 24 25  2  0  0  0  0
 25 20  1  0  0  0  0
 26  4  1  0  0  0  0
M  END
>  <CHROM.1>
-18.25816157,177.25667441,-137.33660130,-122.85340210,37.56839576,-130.94765748
41.89054230,-45.04759650,3.69752677,2.70982665,-1.06317325,3.02160718

>  <Name>
design_2

>  <RI>
0

>  <Rbt.Current_Directory>
/home/ziqiaoxu/icml18-jtnn/VAEdesign

>  <Rbt.Executable>
rbdock ($Id: //depot/dev/client3/rdock/2013.1/src/exe/rbdock.cxx#4 $)

>  <Rbt.Library>
libRbt.so (2013.1, Build901 2013/11/27)

>  <Rbt.Parameter_File>
/export/apps/rDock/src/rDock_2013.1_src//data/scripts/dock.prm

>  <Rbt.Receptor>
/home/ziqiaoxu/icml18-jtnn/VAEdesign/targets/RdRp-SARS-CoV-2/pocket_docking.prm

>  <SCORE>
-17.2283

>  <SCORE.INTER>
-22.0403

>  <SCORE.INTER.CONST>
1

>  <SCORE.INTER.POLAR>
-2.42986

>  <SCORE.INTER.REPUL>
0.00229985

>  <SCORE.INTER.ROT>
6

>  <SCORE.INTER.VDW>
-25.1902

>  <SCORE.INTER.norm>
-0.847702

>  <SCORE.INTRA>
4.81191

>  <SCORE.INTRA.DIHEDRAL>
10.4156

>  <SCORE.INTRA.DIHEDRAL.0>
3.88713

>  <SCORE.INTRA.POLAR>
0

>  <SCORE.INTRA.POLAR.0>
0

>  <SCORE.INTRA.REPUL>
0

>  <SCORE.INTRA.REPUL.0>
0

>  <SCORE.INTRA.VDW>
-0.395897

>  <SCORE.INTRA.VDW.0>
-0.741161

>  <SCORE.INTRA.norm>
0.185074

>  <SCORE.RESTR>
0

>  <SCORE.RESTR.CAVITY>
0

>  <SCORE.RESTR.norm>
0

>  <SCORE.SYSTEM>
0

>  <SCORE.SYSTEM.CONST>
0

>  <SCORE.SYSTEM.DIHEDRAL>
0

>  <SCORE.SYSTEM.norm>
0

>  <SCORE.heavy>
26

>  <SCORE.norm>
-0.662629

$$$$
design_4
 OpenBabel05252019093D

 27 29  0  0  0  0  0  0  0  0999 V2000
   39.9163  -46.2995   10.3982 N   0  0  0  0  0  0  0  0  0  0  0  0
   40.2011  -45.7258    9.1212 C   0  0  0  0  0  0  0  0  0  0  0  0
   40.4985  -44.5222    9.0281 O   0  0  0  0  0  0  0  0  0  0  0  0
   40.1455  -46.5477    7.9155 C   0  0  0  0  0  0  0  0  0  0  0  0
   39.3804  -47.6957    7.9081 C   0  0  0  0  0  0  0  0  0  0  0  0
   39.3472  -48.4488    6.7676 C   0  0  0  0  0  0  0  0  0  0  0  0
   40.0741  -48.0642    5.6305 C   0  0  0  0  0  0  0  0  0  0  0  0
   40.8367  -46.9346    5.6149 C   0  0  0  0  0  0  0  0  0  0  0  0
   41.5997  -46.4817    4.5359 N   0  0  0  0  0  0  0  0  0  0  0  0
   42.5317  -45.4284    4.4877 C   0  0  0  0  0  0  0  0  0  0  0  0
   42.7698  -44.7498    5.5077 O   0  0  0  0  0  0  0  0  0  0  0  0
   43.2562  -45.0914    3.2357 C   0  0  0  0  0  0  0  0  0  0  0  0
   42.4212  -44.9815    2.0247 C   0  0  0  0  0  0  0  0  0  0  0  0
   42.8172  -43.9742    1.0054 C   0  0  0  0  0  0  0  0  0  0  0  0
   42.0516  -42.3632    1.4477 S   0  0  0  0  0  0  0  0  0  0  0  0
   43.0565  -41.0118    0.8196 C   0  0  0  0  0  0  0  0  0  0  0  0
   43.1219  -39.8292    1.4564 N   0  0  0  0  0  0  0  0  0  0  0  0
   43.8649  -38.8065    1.0063 C   0  0  0  0  0  0  0  0  0  0  0  0
   43.9354  -37.5904    1.6560 C   0  0  0  0  0  0  0  0  0  0  0  0
   44.7020  -36.5387    1.1891 C   0  0  0  0  0  0  0  0  0  0  0  0
   45.4367  -36.6803    0.0302 C   0  0  0  0  0  0  0  0  0  0  0  0
   45.3745  -37.8907   -0.6283 C   0  0  0  0  0  0  0  0  0  0  0  0
   44.6072  -38.9369   -0.1568 C   0  0  0  0  0  0  0  0  0  0  0  0
   44.5337  -40.1535   -0.8032 C   0  0  0  0  0  0  0  0  0  0  0  0
   45.2111  -40.2772   -1.8675 O   0  0  0  0  0  0  0  0  0  0  0  0
   43.7745  -41.1500   -0.3130 N   0  0  0  0  0  0  0  0  0  0  0  0
   40.8425  -46.1931    6.8024 C   0  0  0  0  0  0  0  0  0  0  0  0
  1  2  1  0  0  0  0
  2  3  2  0  0  0  0
  2  4  1  0  0  0  0
  4  5  2  0  0  0  0
  5  6  1  0  0  0  0
  6  7  2  0  0  0  0
  7  8  1  0  0  0  0
  8  9  1  0  0  0  0
  8 27  2  0  0  0  0
  9 10  1  0  0  0  0
 10 11  2  0  0  0  0
 10 12  1  0  0  0  0
 12 13  1  0  0  0  0
 13 14  1  0  0  0  0
 14 15  1  0  0  0  0
 15 16  1  0  0  0  0
 16 17  2  0  0  0  0
 17 18  1  0  0  0  0
 18 19  2  0  0  0  0
 19 20  1  0  0  0  0
 20 21  2  0  0  0  0
 21 22  1  0  0  0  0
 22 23  2  0  0  0  0
 23 24  1  0  0  0  0
 23 18  1  0  0  0  0
 24 25  2  0  0  0  0
 24 26  1  0  0  0  0
 26 16  1  0  0  0  0
 27  4  1  0  0  0  0
M  END
>  <CHROM.1>
23.39739903,-171.47618115,47.77144405,145.83897245,-87.02955409,152.34499751
-148.88925664,42.43021168,-43.06476295,3.41352275,3.09440793,-1.20918012
-2.39183351

>  <Name>
design_4

>  <RI>
0

>  <Rbt.Current_Directory>
/home/ziqiaoxu/icml18-jtnn/VAEdesign

>  <Rbt.Executable>
rbdock ($Id: //depot/dev/client3/rdock/2013.1/src/exe/rbdock.cxx#4 $)

>  <Rbt.Library>
libRbt.so (2013.1, Build901 2013/11/27)

>  <Rbt.Parameter_File>
/export/apps/rDock/src/rDock_2013.1_src//data/scripts/dock.prm

>  <Rbt.Receptor>
/home/ziqiaoxu/icml18-jtnn/VAEdesign/targets/RdRp-SARS-CoV-2/pocket_docking.prm

>  <SCORE>
-23.5703

>  <SCORE.INTER>
-27.1979

>  <SCORE.INTER.CONST>
1

>  <SCORE.INTER.POLAR>
-4.36401

>  <SCORE.INTER.REPUL>
0.0858181

>  <SCORE.INTER.ROT>
7

>  <SCORE.INTER.VDW>
-25.1894

>  <SCORE.INTER.norm>
-1.00733

>  <SCORE.INTRA>
3.62764

>  <SCORE.INTRA.DIHEDRAL>
8.78562

>  <SCORE.INTRA.DIHEDRAL.0>
3.41095

>  <SCORE.INTRA.POLAR>
0

>  <SCORE.INTRA.POLAR.0>
0

>  <SCORE.INTRA.REPUL>
0

>  <SCORE.INTRA.REPUL.0>
0

>  <SCORE.INTRA.VDW>
-0.765166

>  <SCORE.INTRA.VDW.0>
-0.224476

>  <SCORE.INTRA.norm>
0.134357

>  <SCORE.RESTR>
0

>  <SCORE.RESTR.CAVITY>
0

>  <SCORE.RESTR.norm>
0

>  <SCORE.SYSTEM>
0

>  <SCORE.SYSTEM.CONST>
0

>  <SCORE.SYSTEM.DIHEDRAL>
0

>  <SCORE.SYSTEM.norm>
0

>  <SCORE.heavy>
27

>  <SCORE.norm>
-0.872974

$$$$
design_2
 OpenBabel05252019093D

 23 25  0  0  0  0  0  0  0  0999 V2000
   45.1065  -44.3710    9.5407 C   0  0  0  0  0  0  0  0  0  0  0  0
   44.2280  -44.4136    8.3013 C   0  0  1  0  0  0  0  0  0  0  0  0
   44.8698  -45.2241    7.2956 N   0  0  0  0  0  0  0  0  0  0  0  0
   44.7158  -44.8841    5.9294 C   0  0  0  0  0  0  0  0  0  0  0  0
   44.0203  -43.8813    5.6453 O   0  0  0  0  0  0  0  0  0  0  0  0
   45.3438  -45.6757    4.9293 N   0  0  0  0  0  0  0  0  0  0  0  0
   45.1996  -45.3591    3.5257 C   0  0  0  0  0  0  0  0  0  0  0  0
   43.7823  -45.4001    3.0479 C   0  0  0  0  0  0  0  0  0  0  0  0
   43.6853  -44.8302    1.6661 C   0  0  0  0  0  0  0  0  0  0  0  0
   44.3080  -45.6614    0.6911 N   0  0  0  0  0  0  0  0  0  0  0  0
   43.7211  -46.4574   -0.2230 C   0  0  0  0  0  0  0  0  0  0  0  0
   44.7177  -47.0518   -0.9334 C   0  0  0  0  0  0  0  0  0  0  0  0
   45.9146  -46.5955   -0.4261 C   0  0  0  0  0  0  0  0  0  0  0  0
   45.6339  -45.7499    0.5623 N   0  0  0  0  0  0  0  0  0  0  0  0
   42.8642  -44.9080    8.6302 C   0  0  0  0  0  0  0  0  0  0  0  0
   42.1661  -44.4096    9.7103 C   0  0  0  0  0  0  0  0  0  0  0  0
   40.8934  -44.8741   10.0134 C   0  0  0  0  0  0  0  0  0  0  0  0
   40.2770  -45.8485    9.2513 C   0  0  0  0  0  0  0  0  0  0  0  0
   40.9735  -46.3475    8.1718 C   0  0  0  0  0  0  0  0  0  0  0  0
   42.2563  -45.8807    7.8645 C   0  0  0  0  0  0  0  0  0  0  0  0
   40.1522  -47.3795    7.4795 C   0  0  0  0  0  0  0  0  0  0  0  0
   38.7627  -47.1609    8.0330 C   0  0  0  0  0  0  0  0  0  0  0  0
   38.9451  -46.4931    9.3764 C   0  0  0  0  0  0  0  0  0  0  0  0
  2  1  1  1  0  0  0
  2  3  1  0  0  0  0
  2 15  1  0  0  0  0
  3  4  1  0  0  0  0
  4  5  2  0  0  0  0
  4  6  1  0  0  0  0
  6  7  1  0  0  0  0
  7  8  1  0  0  0  0
  8  9  1  0  0  0  0
  9 10  1  0  0  0  0
 10 11  1  0  0  0  0
 11 12  2  0  0  0  0
 12 13  1  0  0  0  0
 13 14  2  0  0  0  0
 14 10  1  0  0  0  0
 15 16  2  0  0  0  0
 16 17  1  0  0  0  0
 17 18  2  0  0  0  0
 18 19  1  0  0  0  0
 19 20  2  0  0  0  0
 19 21  1  0  0  0  0
 20 15  1  0  0  0  0
 21 22  1  0  0  0  0
 22 23  1  0  0  0  0
 23 18  1  0  0  0  0
M  END
>  <CHROM.1>
-145.94043244,-60.68512603,169.95777781,68.98443105,105.46020013,47.30014142
43.20002177,-45.59332090,5.54027685,-2.01306335,-0.40050439,-1.79534587

>  <Name>
design_2

>  <RI>
0

>  <Rbt.Current_Directory>
/home/ziqiaoxu/icml18-jtnn/VAEdesign

>  <Rbt.Executable>
rbdock ($Id: //depot/dev/client3/rdock/2013.1/src/exe/rbdock.cxx#4 $)

>  <Rbt.Library>
libRbt.so (2013.1, Build901 2013/11/27)

>  <Rbt.Parameter_File>
/export/apps/rDock/src/rDock_2013.1_src//data/scripts/dock.prm

>  <Rbt.Receptor>
/home/ziqiaoxu/icml18-jtnn/VAEdesign/targets/RdRp-SARS-CoV-2/pocket_docking.prm

>  <SCORE>
-18.0143

>  <SCORE.INTER>
-19.4406

>  <SCORE.INTER.CONST>
1

>  <SCORE.INTER.POLAR>
-1.66235

>  <SCORE.INTER.REPUL>
0

>  <SCORE.INTER.ROT>
6

>  <SCORE.INTER.VDW>
-25.1886

>  <SCORE.INTER.norm>
-0.845244

>  <SCORE.INTRA>
1.42627

>  <SCORE.INTRA.DIHEDRAL>
0.652941

>  <SCORE.INTRA.DIHEDRAL.0>
5.53375

>  <SCORE.INTRA.POLAR>
0

>  <SCORE.INTRA.POLAR.0>
0

>  <SCORE.INTRA.REPUL>
0

>  <SCORE.INTRA.REPUL.0>
0

>  <SCORE.INTRA.VDW>
1.0998

>  <SCORE.INTRA.VDW.0>
-1.04673

>  <SCORE.INTRA.norm>
0.0620119

>  <SCORE.RESTR>
0

>  <SCORE.RESTR.CAVITY>
0

>  <SCORE.RESTR.norm>
0

>  <SCORE.SYSTEM>
0

>  <SCORE.SYSTEM.CONST>
0

>  <SCORE.SYSTEM.DIHEDRAL>
0

>  <SCORE.SYSTEM.norm>
0

>  <SCORE.heavy>
23

>  <SCORE.norm>
-0.783232

$$$$
design_0
 OpenBabel05252019093D

 23 24  0  0  0  0  0  0  0  0999 V2000
   44.2234  -45.7197   -0.2260 C   0  0  0  0  0  0  0  0  0  0  0  0
   45.4055  -46.5854   -0.1633 C   0  0  0  0  0  0  0  0  0  0  0  0
   45.8036  -47.1733   -1.1837 O   0  0  0  0  0  0  0  0  0  0  0  0
   46.1175  -46.7601    1.0933 C   0  0  0  0  0  0  0  0  0  0  0  0
   47.2999  -47.4876    1.0789 C   0  0  0  0  0  0  0  0  0  0  0  0
   47.9744  -47.6559    2.2566 C   0  0  0  0  0  0  0  0  0  0  0  0
   47.5238  -47.1262    3.4760 C   0  0  0  0  0  0  0  0  0  0  0  0
   46.3553  -46.4089    3.4802 C   0  0  0  0  0  0  0  0  0  0  0  0
   45.8377  -45.8301    4.6599 N   0  0  0  0  0  0  0  0  0  0  0  0
   44.8774  -44.8362    4.8185 C   0  0  0  0  0  0  0  0  0  0  0  0
   44.2857  -44.2698    3.8757 O   0  0  0  0  0  0  0  0  0  0  0  0
   44.5143  -44.4005    6.2281 C   0  0  0  0  0  0  0  0  0  0  0  0
   44.0533  -45.5648    7.0404 C   0  0  0  0  0  0  0  0  0  0  0  0
   43.2695  -45.0784    8.1975 C   0  0  0  0  0  0  0  0  0  0  0  0
   43.7950  -44.2499    8.9758 O   0  0  0  0  0  0  0  0  0  0  0  0
   41.9112  -45.5211    8.4722 C   0  0  0  0  0  0  0  0  0  0  0  0
   41.2121  -45.0106    9.5475 C   0  0  0  0  0  0  0  0  0  0  0  0
   39.9319  -45.4491    9.7794 C   0  0  0  0  0  0  0  0  0  0  0  0
   39.3192  -46.3862    8.9704 C   0  0  0  0  0  0  0  0  0  0  0  0
   37.7044  -46.9726    9.2206 Cl  0  0  0  0  0  0  0  0  0  0  0  0
   40.0291  -46.8997    7.8843 C   0  0  0  0  0  0  0  0  0  0  0  0
   41.3101  -46.4557    7.6589 C   0  0  0  0  0  0  0  0  0  0  0  0
   45.6605  -46.2349    2.2711 C   0  0  0  0  0  0  0  0  0  0  0  0
  1  2  1  0  0  0  0
  2  3  2  0  0  0  0
  2  4  1  0  0  0  0
  4  5  2  0  0  0  0
  5  6  1  0  0  0  0
  6  7  2  0  0  0  0
  7  8  1  0  0  0  0
  8  9  1  0  0  0  0
  8 23  2  0  0  0  0
  9 10  1  0  0  0  0
 10 11  2  0  0  0  0
 10 12  1  0  0  0  0
 12 13  1  0  0  0  0
 13 14  1  0  0  0  0
 14 15  2  0  0  0  0
 14 16  1  0  0  0  0
 16 17  2  0  0  0  0
 17 18  1  0  0  0  0
 18 19  2  0  0  0  0
 19 20  1  0  0  0  0
 19 21  1  0  0  0  0
 21 22  2  0  0  0  0
 22 16  1  0  0  0  0
 23  4  1  0  0  0  0
M  END
>  <CHROM.1>
-174.13047784,163.12114837,-56.74955055,-159.93768137,-55.56280243,-178.39725071
43.46499726,-46.04185277,5.33141896,0.85803068,-0.25888898,-1.85884425

>  <Name>
design_0

>  <RI>
0

>  <Rbt.Current_Directory>
/home/ziqiaoxu/icml18-jtnn/VAEdesign

>  <Rbt.Executable>
rbdock ($Id: //depot/dev/client3/rdock/2013.1/src/exe/rbdock.cxx#4 $)

>  <Rbt.Library>
libRbt.so (2013.1, Build901 2013/11/27)

>  <Rbt.Parameter_File>
/export/apps/rDock/src/rDock_2013.1_src//data/scripts/dock.prm

>  <Rbt.Receptor>
/home/ziqiaoxu/icml18-jtnn/VAEdesign/targets/RdRp-SARS-CoV-2/pocket_docking.prm

>  <SCORE>
-18.6924

>  <SCORE.INTER>
-16.8186

>  <SCORE.INTER.CONST>
1

>  <SCORE.INTER.POLAR>
-0.891192

>  <SCORE.INTER.REPUL>
0

>  <SCORE.INTER.ROT>
6

>  <SCORE.INTER.VDW>
-25.1885

>  <SCORE.INTER.norm>
-0.731243

>  <SCORE.INTRA>
-1.87382

>  <SCORE.INTRA.DIHEDRAL>
3.72551

>  <SCORE.INTRA.DIHEDRAL.0>
2.5886

>  <SCORE.INTRA.POLAR>
0

>  <SCORE.INTRA.POLAR.0>
0

>  <SCORE.INTRA.REPUL>
0

>  <SCORE.INTRA.REPUL.0>
0

>  <SCORE.INTRA.VDW>
-3.73658

>  <SCORE.INTRA.VDW.0>
5.35561

>  <SCORE.INTRA.norm>
-0.0814706

>  <SCORE.RESTR>
0

>  <SCORE.RESTR.CAVITY>
0

>  <SCORE.RESTR.norm>
0

>  <SCORE.SYSTEM>
0

>  <SCORE.SYSTEM.CONST>
0

>  <SCORE.SYSTEM.DIHEDRAL>
0

>  <SCORE.SYSTEM.norm>
0

>  <SCORE.heavy>
23

>  <SCORE.norm>
-0.812713

$$$$
design_13
 OpenBabel05252019093D

 22 24  0  0  0  0  0  0  0  0999 V2000
   38.9547  -48.5669    6.6430 C   0  0  0  0  0  0  0  0  0  0  0  0
   40.1691  -47.6930    6.4440 C   0  0  1  0  0  0  0  0  0  0  0  0
   39.9833  -46.7814    5.2756 C   0  0  0  0  0  0  0  0  0  0  0  0
   40.8706  -45.5916    5.3852 C   0  0  0  0  0  0  0  0  0  0  0  0
   42.1716  -45.8782    6.0763 C   0  0  0  0  0  0  0  0  0  0  0  0
   41.9160  -46.3445    7.5055 C   0  0  0  0  0  0  0  0  0  0  0  0
   40.5995  -46.9655    7.5893 N   0  0  0  0  0  0  0  0  0  0  0  0
   39.8766  -46.8027    8.7986 C   0  0  0  0  0  0  0  0  0  0  0  0
   38.7502  -47.3275    8.9914 O   0  0  0  0  0  0  0  0  0  0  0  0
   40.4193  -45.9910    9.9163 C   0  0  0  0  0  0  0  0  0  0  0  0
   39.7074  -44.7824   10.1773 N   0  0  0  0  0  0  0  0  0  0  0  0
   40.1593  -43.4646    9.9211 C   0  0  0  0  0  0  0  0  0  0  0  0
   41.2852  -43.2935    9.4073 O   0  0  0  0  0  0  0  0  0  0  0  0
   39.3510  -42.2588   10.2352 C   0  0  0  0  0  0  0  0  0  0  0  0
   39.5374  -41.1384    9.3104 C   0  0  0  0  0  0  0  0  0  0  0  0
   38.8015  -40.9185    8.1585 C   0  0  0  0  0  0  0  0  0  0  0  0
   39.2391  -39.7743    7.5289 N   0  0  0  0  0  0  0  0  0  0  0  0
   38.9228  -39.1001    6.4365 C   0  0  0  0  0  0  0  0  0  0  0  0
   39.6393  -37.9651    6.1673 C   0  0  0  0  0  0  0  0  0  0  0  0
   40.7315  -37.9055    7.4779 S   0  0  0  0  0  0  0  0  0  0  0  0
   40.2217  -39.3158    8.2911 C   0  0  0  0  0  0  0  0  0  0  0  0
   40.4175  -40.1365    9.3823 N   0  0  0  0  0  0  0  0  0  0  0  0
  2  1  1  1  0  0  0
  2  3  1  0  0  0  0
  3  4  1  0  0  0  0
  4  5  1  0  0  0  0
  5  6  1  0  0  0  0
  6  7  1  0  0  0  0
  7  8  1  0  0  0  0
  7  2  1  0  0  0  0
  8  9  2  0  0  0  0
  8 10  1  0  0  0  0
 10 11  1  0  0  0  0
 11 12  1  0  0  0  0
 12 13  2  0  0  0  0
 12 14  1  0  0  0  0
 14 15  1  0  0  0  0
 15 16  2  0  0  0  0
 16 17  1  0  0  0  0
 17 18  1  0  0  0  0
 18 19  2  0  0  0  0
 19 20  1  0  0  0  0
 20 21  1  0  0  0  0
 21 22  2  0  0  0  0
 21 17  1  0  0  0  0
 22 15  1  0  0  0  0
M  END
>  <CHROM.1>
111.96792647,-109.19867482,-146.95408517,90.00611527,40.11866201,-43.31813421
7.93847151,-1.40097672,1.42315088,-0.13040584

>  <Name>
design_13

>  <RI>
0

>  <Rbt.Current_Directory>
/home/ziqiaoxu/icml18-jtnn/VAEdesign

>  <Rbt.Executable>
rbdock ($Id: //depot/dev/client3/rdock/2013.1/src/exe/rbdock.cxx#4 $)

>  <Rbt.Library>
libRbt.so (2013.1, Build901 2013/11/27)

>  <Rbt.Parameter_File>
/export/apps/rDock/src/rDock_2013.1_src//data/scripts/dock.prm

>  <Rbt.Receptor>
/home/ziqiaoxu/icml18-jtnn/VAEdesign/targets/RdRp-SARS-CoV-2/pocket_docking.prm

>  <SCORE>
-20.4057

>  <SCORE.INTER>
-20.3571

>  <SCORE.INTER.CONST>
1

>  <SCORE.INTER.POLAR>
-1.34396

>  <SCORE.INTER.REPUL>
0

>  <SCORE.INTER.ROT>
4

>  <SCORE.INTER.VDW>
-25.1876

>  <SCORE.INTER.norm>
-0.925322

>  <SCORE.INTRA>
-0.0486159

>  <SCORE.INTRA.DIHEDRAL>
0.234444

>  <SCORE.INTRA.DIHEDRAL.0>
4.99876

>  <SCORE.INTRA.POLAR>
0

>  <SCORE.INTRA.POLAR.0>
0

>  <SCORE.INTRA.REPUL>
0

>  <SCORE.INTRA.REPUL.0>
0

>  <SCORE.INTRA.VDW>
-0.165838

>  <SCORE.INTRA.VDW.0>
-1.41014

>  <SCORE.INTRA.norm>
-0.00220981

>  <SCORE.RESTR>
0

>  <SCORE.RESTR.CAVITY>
0

>  <SCORE.RESTR.norm>
0

>  <SCORE.SYSTEM>
0

>  <SCORE.SYSTEM.CONST>
0

>  <SCORE.SYSTEM.DIHEDRAL>
0

>  <SCORE.SYSTEM.norm>
0

>  <SCORE.heavy>
22

>  <SCORE.norm>
-0.927532

$$$$
design_5
 OpenBabel05252019093D

 21 22  0  0  0  0  0  0  0  0999 V2000
   41.5694  -44.4049   10.8414 C   0  0  0  0  0  0  0  0  0  0  0  0
   40.9902  -45.2752    9.7535 C   0  0  0  0  0  0  0  0  0  0  0  0
   39.8092  -45.9462    9.9696 C   0  0  0  0  0  0  0  0  0  0  0  0
   39.2758  -46.7426    8.9787 C   0  0  0  0  0  0  0  0  0  0  0  0
   39.8965  -46.8922    7.7572 C   0  0  0  0  0  0  0  0  0  0  0  0
   39.2123  -47.8998    6.5168 S   0  0  0  0  0  0  0  0  0  0  0  0
   40.3207  -48.3144    5.5491 O   0  0  0  0  0  0  0  0  0  0  0  0
   38.7163  -49.2094    7.0906 O   0  0  0  0  0  0  0  0  0  0  0  0
   38.0182  -47.0802    5.6511 N   0  0  0  0  0  0  0  0  0  0  0  0
   37.5516  -45.7627    5.7910 C   0  0  0  0  0  0  0  0  0  0  0  0
   36.2654  -45.5282    5.2736 C   0  0  0  0  0  0  0  0  0  0  0  0
   35.6700  -44.2912    5.3545 C   0  0  0  0  0  0  0  0  0  0  0  0
   36.3430  -43.2505    5.9556 C   0  0  0  0  0  0  0  0  0  0  0  0
   35.6119  -41.6808    6.0697 S   0  0  0  0  0  0  0  0  0  0  0  0
   35.1340  -41.1473    4.4886 N   0  0  0  0  0  0  0  0  0  0  0  0
   34.3588  -41.7610    6.9268 O   0  0  0  0  0  0  0  0  0  0  0  0
   36.5614  -40.7309    6.7008 O   0  0  0  0  0  0  0  0  0  0  0  0
   37.6073  -43.4613    6.4694 C   0  0  0  0  0  0  0  0  0  0  0  0
   38.1752  -44.7093    6.3724 C   0  0  0  0  0  0  0  0  0  0  0  0
   41.0777  -46.2118    7.5616 C   0  0  0  0  0  0  0  0  0  0  0  0
   41.6188  -45.4146    8.5431 C   0  0  0  0  0  0  0  0  0  0  0  0
  1  2  1  0  0  0  0
  2  3  2  0  0  0  0
  3  4  1  0  0  0  0
  4  5  2  0  0  0  0
  5  6  1  0  0  0  0
  5 20  1  0  0  0  0
  6  7  2  0  0  0  0
  6  8  2  0  0  0  0
  6  9  1  0  0  0  0
  9 10  1  0  0  0  0
 10 11  2  0  0  0  0
 11 12  1  0  0  0  0
 12 13  2  0  0  0  0
 13 14  1  0  0  0  0
 13 18  1  0  0  0  0
 14 15  1  0  0  0  0
 14 16  2  0  0  0  0
 14 17  2  0  0  0  0
 18 19  2  0  0  0  0
 19 10  1  0  0  0  0
 20 21  2  0  0  0  0
 21  2  1  0  0  0  0
M  END
>  <CHROM.1>
-157.80050423,0.83797005,-158.13110502,-54.76910417,-73.10166971,38.13012317
-44.97736245,6.90922731,-0.53166948,-0.73380144,0.47716726

>  <Name>
design_5

>  <RI>
0

>  <Rbt.Current_Directory>
/home/ziqiaoxu/icml18-jtnn/VAEdesign

>  <Rbt.Executable>
rbdock ($Id: //depot/dev/client3/rdock/2013.1/src/exe/rbdock.cxx#4 $)

>  <Rbt.Library>
libRbt.so (2013.1, Build901 2013/11/27)

>  <Rbt.Parameter_File>
/export/apps/rDock/src/rDock_2013.1_src//data/scripts/dock.prm

>  <Rbt.Receptor>
/home/ziqiaoxu/icml18-jtnn/VAEdesign/targets/RdRp-SARS-CoV-2/pocket_docking.prm

>  <SCORE>
-25.6867

>  <SCORE.INTER>
-22.58

>  <SCORE.INTER.CONST>
1

>  <SCORE.INTER.POLAR>
-2.38481

>  <SCORE.INTER.REPUL>
0.0631585

>  <SCORE.INTER.ROT>
5

>  <SCORE.INTER.VDW>
-25.1874

>  <SCORE.INTER.norm>
-1.07524

>  <SCORE.INTRA>
-3.1067

>  <SCORE.INTRA.DIHEDRAL>
-6.26233

>  <SCORE.INTRA.DIHEDRAL.0>
11.761

>  <SCORE.INTRA.POLAR>
0

>  <SCORE.INTRA.POLAR.0>
0

>  <SCORE.INTRA.REPUL>
0

>  <SCORE.INTRA.REPUL.0>
0

>  <SCORE.INTRA.VDW>
0.0244668

>  <SCORE.INTRA.VDW.0>
-2.97905

>  <SCORE.INTRA.norm>
-0.147938

>  <SCORE.RESTR>
0

>  <SCORE.RESTR.CAVITY>
0

>  <SCORE.RESTR.norm>
0

>  <SCORE.SYSTEM>
0

>  <SCORE.SYSTEM.CONST>
0

>  <SCORE.SYSTEM.DIHEDRAL>
0

>  <SCORE.SYSTEM.norm>
0

>  <SCORE.heavy>
21

>  <SCORE.norm>
-1.22317

$$$$
design_13
 OpenBabel05252019093D

 26 29  0  0  0  0  0  0  0  0999 V2000
   36.9277  -45.0879    6.0829 C   0  0  0  0  0  0  0  0  0  0  0  0
   36.9194  -43.5892    6.1784 C   0  0  0  0  0  0  0  0  0  0  0  0
   37.8468  -42.7637    6.5402 N   0  0  0  0  0  0  0  0  0  0  0  0
   37.6288  -41.4620    6.5691 C   0  0  0  0  0  0  0  0  0  0  0  0
   38.6962  -40.5098    6.9581 C   0  0  0  0  0  0  0  0  0  0  0  0
   39.6717  -40.8964    7.8516 C   0  0  0  0  0  0  0  0  0  0  0  0
   40.6621  -39.9547    8.1933 C   0  0  0  0  0  0  0  0  0  0  0  0
   40.6237  -38.6771    7.6221 C   0  0  0  0  0  0  0  0  0  0  0  0
   39.6778  -38.2954    6.7485 C   0  0  0  0  0  0  0  0  0  0  0  0
   39.6019  -36.9662    6.0486 C   0  0  0  0  0  0  0  0  0  0  0  0
   39.5795  -36.9635    4.7103 N   0  0  0  0  0  0  0  0  0  0  0  0
   39.5490  -36.9419    3.3031 C   0  0  0  0  0  0  0  0  0  0  0  0
   39.0941  -36.0542    2.5701 O   0  0  0  0  0  0  0  0  0  0  0  0
   40.1536  -38.1684    2.6496 C   0  0  1  0  0  0  0  0  0  0  0  0
   41.0920  -37.8360    1.5186 C   0  0  0  0  0  0  0  0  0  0  0  0
   41.4735  -39.0653    0.9478 O   0  0  0  0  0  0  0  0  0  0  0  0
   41.6954  -40.1572    1.7709 C   0  0  0  0  0  0  0  0  0  0  0  0
   42.1537  -41.3688    1.2557 C   0  0  0  0  0  0  0  0  0  0  0  0
   42.3658  -42.4550    2.0950 C   0  0  0  0  0  0  0  0  0  0  0  0
   42.1318  -42.3589    3.4652 C   0  0  0  0  0  0  0  0  0  0  0  0
   41.6853  -41.1660    3.9532 C   0  0  0  0  0  0  0  0  0  0  0  0
   41.4652  -40.0839    3.1317 C   0  0  0  0  0  0  0  0  0  0  0  0
   40.9955  -38.8355    3.6050 O   0  0  0  0  0  0  0  0  0  0  0  0
   38.6928  -39.2452    6.4199 C   0  0  0  0  0  0  0  0  0  0  0  0
   36.3759  -41.0213    6.2051 C   0  0  0  0  0  0  0  0  0  0  0  0
   35.6042  -42.5223    5.8436 S   0  0  0  0  0  0  0  0  0  0  0  0
  1  2  1  0  0  0  0
  2  3  2  0  0  0  0
  3  4  1  0  0  0  0
  4  5  1  0  0  0  0
  4 25  2  0  0  0  0
  5  6  2  0  0  0  0
  6  7  1  0  0  0  0
  7  8  2  0  0  0  0
  8  9  1  0  0  0  0
  9 10  1  0  0  0  0
  9 24  2  0  0  0  0
 10 11  1  0  0  0  0
 11 12  1  0  0  0  0
 12 13  2  0  0  0  0
 14 12  1  1  0  0  0
 14 15  1  0  0  0  0
 15 16  1  0  0  0  0
 16 17  1  0  0  0  0
 17 18  2  0  0  0  0
 18 19  1  0  0  0  0
 19 20  2  0  0  0  0
 20 21  1  0  0  0  0
 21 22  2  0  0  0  0
 22 23  1  0  0  0  0
 22 17  1  0  0  0  0
 23 14  1  0  0  0  0
 24  5  1  0  0  0  0
 25 26  1  0  0  0  0
 26  2  1  0  0  0  0
M  END
>  <CHROM.1>
-30.23379809,122.81965297,162.11628242,-133.65479485,39.50126098,-40.16685996
4.70670073,-2.73158202,0.88920528,0.24664805

>  <Name>
design_13

>  <RI>
0

>  <Rbt.Current_Directory>
/home/ziqiaoxu/icml18-jtnn/VAEdesign

>  <Rbt.Executable>
rbdock ($Id: //depot/dev/client3/rdock/2013.1/src/exe/rbdock.cxx#4 $)

>  <Rbt.Library>
libRbt.so (2013.1, Build901 2013/11/27)

>  <Rbt.Parameter_File>
/export/apps/rDock/src/rDock_2013.1_src//data/scripts/dock.prm

>  <Rbt.Receptor>
/home/ziqiaoxu/icml18-jtnn/VAEdesign/targets/RdRp-SARS-CoV-2/pocket_docking.prm

>  <SCORE>
-20.0486

>  <SCORE.INTER>
-20.1314

>  <SCORE.INTER.CONST>
1

>  <SCORE.INTER.POLAR>
-1.27772

>  <SCORE.INTER.REPUL>
0

>  <SCORE.INTER.ROT>
4

>  <SCORE.INTER.VDW>
-25.1871

>  <SCORE.INTER.norm>
-0.774284

>  <SCORE.INTRA>
0.0810939

>  <SCORE.INTRA.DIHEDRAL>
4.05227

>  <SCORE.INTRA.DIHEDRAL.0>
2.31821

>  <SCORE.INTRA.POLAR>
0

>  <SCORE.INTRA.POLAR.0>
0

>  <SCORE.INTRA.REPUL>
0

>  <SCORE.INTRA.REPUL.0>
0

>  <SCORE.INTRA.VDW>
-1.94504

>  <SCORE.INTRA.VDW.0>
0.290826

>  <SCORE.INTRA.norm>
0.003119

>  <SCORE.RESTR>
0.00170314

>  <SCORE.RESTR.CAVITY>
0.00170314

>  <SCORE.RESTR.norm>
6.55053e-05

>  <SCORE.SYSTEM>
0

>  <SCORE.SYSTEM.CONST>
0

>  <SCORE.SYSTEM.DIHEDRAL>
0

>  <SCORE.SYSTEM.norm>
0

>  <SCORE.heavy>
26

>  <SCORE.norm>
-0.771099

$$$$
