O6K
 OpenBabel03072016193D

 84 87  0  0  1  0  0  0  0  0999 V2000
   11.8310   -5.7920   23.3410 O   0  0  0  0  0  0  0  0  0  0  0  0
   11.0550   -5.5200   22.4390 C   0  0  0  0  0  0  0  0  0  0  0  0
   10.7940   -6.4860   21.3880 O   0  0  0  0  0  0  0  0  0  0  0  0
   11.5920   -7.6490   21.1000 C   0  0  0  0  0  0  0  0  0  0  0  0
   11.5660   -8.5610   22.3390 C   0  0  0  0  0  0  0  0  0  0  0  0
   11.0030   -8.3630   19.8740 C   0  0  0  0  0  0  0  0  0  0  0  0
   13.0340   -7.2520   20.7560 C   0  0  0  0  0  0  0  0  0  0  0  0
   10.3770   -4.3740   22.3180 N   0  0  0  0  0  0  0  0  0  0  0  0
   10.5110   -3.2570   23.0710 C   0  0  0  0  0  0  0  0  0  0  0  0
    9.7760   -2.0760   22.5880 C   0  0  0  0  0  0  0  0  0  0  0  0
    9.0710   -2.1270   21.5350 O   0  0  0  0  0  0  0  0  0  0  0  0
   11.3120   -3.1340   24.2230 C   0  0  0  0  0  0  0  0  0  0  0  0
   11.3910   -1.9230   24.8800 C   0  0  0  0  0  0  0  0  0  0  0  0
   10.6670   -0.8270   24.4220 C   0  0  0  0  0  0  0  0  0  0  0  0
    9.8740   -0.8790   23.3250 N   0  0  0  0  0  0  0  0  0  0  0  0
    9.1480    0.2790   22.8020 C   0  0  1  0  0  0  0  0  0  0  0  0
    9.0030    1.4310   23.8060 C   0  0  0  0  0  0  0  0  0  0  0  0
    8.2040    0.9910   25.0350 C   0  0  0  0  0  0  0  0  0  0  0  0
    7.4620    2.0420   25.8550 C   0  0  0  0  0  0  0  0  0  0  0  0
    6.6840    1.1640   24.8830 C   0  0  0  0  0  0  0  0  0  0  0  0
    9.9080    0.7110   21.5760 C   0  0  0  0  0  0  0  0  0  0  0  0
   11.1280    0.5540   21.5190 O   0  0  0  0  0  0  0  0  0  0  0  0
    9.1950    1.2700   20.5840 N   0  0  0  0  0  0  0  0  0  0  0  0
    9.7960    1.7920   19.3960 C   0  0  1  0  0  0  0  0  0  0  0  0
    9.2500    1.1520   18.0800 C   0  0  0  0  0  0  0  0  0  0  0  0
    9.7730   -0.2500   17.9890 C   0  0  1  0  0  0  0  0  0  0  0  0
    9.1970   -1.1410   16.9100 C   0  0  0  0  0  0  0  0  0  0  0  0
    8.0040   -1.1510   16.6210 O   0  0  0  0  0  0  0  0  0  0  0  0
   10.1730   -1.9110   16.4000 N   0  0  0  0  0  0  0  0  0  0  0  0
   11.4690   -1.7050   17.0560 C   0  0  0  0  0  0  0  0  0  0  0  0
   11.2780   -0.3410   17.7080 C   0  0  0  0  0  0  0  0  0  0  0  0
    9.6010    3.2860   19.6300 C   0  0  1  0  0  0  0  0  0  0  0  0
    9.9190    3.7620   20.9920 O   0  0  0  0  0  0  0  0  0  0  0  0
   10.5540    4.0440   18.7970 C   0  0  0  0  0  0  0  0  0  0  0  0
   10.4780    3.8830   17.5930 O   0  0  0  0  0  0  0  0  0  0  0  0
   11.3560    4.8660   19.5340 N   0  0  0  0  0  0  0  0  0  0  0  0
   12.3700    5.7700   18.9920 C   0  0  0  0  0  0  0  0  0  0  0  0
   13.7300    5.0870   18.9150 C   0  0  0  0  0  0  0  0  0  0  0  0
   13.9370    3.8120   19.4420 C   0  0  0  0  0  0  0  0  0  0  0  0
   15.1980    3.2150   19.3710 C   0  0  0  0  0  0  0  0  0  0  0  0
   16.2670    3.8900   18.7680 C   0  0  0  0  0  0  0  0  0  0  0  0
   16.0700    5.1660   18.2380 C   0  0  0  0  0  0  0  0  0  0  0  0
   14.8050    5.7570   18.3140 C   0  0  0  0  0  0  0  0  0  0  0  0
   11.9930   -8.0240   23.1990 H   0  0  0  0  0  0  0  0  0  0  0  0
   10.5270   -8.8450   22.5630 H   0  0  0  0  0  0  0  0  0  0  0  0
   12.1590   -9.4660   22.1410 H   0  0  0  0  0  0  0  0  0  0  0  0
    9.9660   -8.6630   20.0870 H   0  0  0  0  0  0  0  0  0  0  0  0
   11.0180   -7.6820   19.0110 H   0  0  0  0  0  0  0  0  0  0  0  0
   11.6030   -9.2560   19.6470 H   0  0  0  0  0  0  0  0  0  0  0  0
   13.4880   -6.7360   21.6150 H   0  0  0  0  0  0  0  0  0  0  0  0
   13.6170   -8.1550   20.5210 H   0  0  0  0  0  0  0  0  0  0  0  0
   13.0310   -6.5800   19.8850 H   0  0  0  0  0  0  0  0  0  0  0  0
    9.6940   -4.3380   21.5890 H   0  0  0  0  0  0  0  0  0  0  0  0
   11.8640   -3.9860   24.5920 H   0  0  0  0  0  0  0  0  0  0  0  0
   12.0180   -1.8260   25.7540 H   0  0  0  0  0  0  0  0  0  0  0  0
   10.7400    0.1040   24.9640 H   0  0  0  0  0  0  0  0  0  0  0  0
    8.1400   -0.0370   22.4950 H   0  0  0  0  0  0  0  0  0  0  0  0
   10.0040    1.7580   24.1260 H   0  0  0  0  0  0  0  0  0  0  0  0
    8.4820    2.2690   23.3190 H   0  0  0  0  0  0  0  0  0  0  0  0
    8.5540    0.0930   25.5660 H   0  0  0  0  0  0  0  0  0  0  0  0
    7.6050    3.1100   25.6350 H   0  0  0  0  0  0  0  0  0  0  0  0
    7.3370    1.9040   26.9390 H   0  0  0  0  0  0  0  0  0  0  0  0
    6.2690    1.5970   23.9610 H   0  0  0  0  0  0  0  0  0  0  0  0
    6.0010    0.3910   25.2650 H   0  0  0  0  0  0  0  0  0  0  0  0
    8.2010    1.3230   20.6810 H   0  0  0  0  0  0  0  0  0  0  0  0
   10.8770    1.5900   19.4290 H   0  0  0  0  0  0  0  0  0  0  0  0
    9.5930    1.7350   17.2120 H   0  0  0  0  0  0  0  0  0  0  0  0
    8.1500    1.1390   18.1010 H   0  0  0  0  0  0  0  0  0  0  0  0
    9.5900   -0.7400   18.9570 H   0  0  0  0  0  0  0  0  0  0  0  0
   10.0310   -2.5580   15.6510 H   0  0  0  0  0  0  0  0  0  0  0  0
   11.6650   -2.4840   17.8080 H   0  0  0  0  0  0  0  0  0  0  0  0
   12.2900   -1.6870   16.3240 H   0  0  0  0  0  0  0  0  0  0  0  0
   11.8520   -0.2750   18.6440 H   0  0  0  0  0  0  0  0  0  0  0  0
   11.5940    0.4620   17.0260 H   0  0  0  0  0  0  0  0  0  0  0  0
    8.5690    3.5630   19.3670 H   0  0  0  0  0  0  0  0  0  0  0  0
    9.3520    3.3290   21.6200 H   0  0  0  0  0  0  0  0  0  0  0  0
   11.2410    4.8490   20.5270 H   0  0  0  0  0  0  0  0  0  0  0  0
   12.4480    6.6530   19.6430 H   0  0  0  0  0  0  0  0  0  0  0  0
   12.0680    6.0840   17.9820 H   0  0  0  0  0  0  0  0  0  0  0  0
   13.1180    3.2840   19.9070 H   0  0  0  0  0  0  0  0  0  0  0  0
   15.3490    2.2280   19.7830 H   0  0  0  0  0  0  0  0  0  0  0  0
   17.2400    3.4250   18.7130 H   0  0  0  0  0  0  0  0  0  0  0  0
   16.8890    5.6940   17.7720 H   0  0  0  0  0  0  0  0  0  0  0  0
   14.6540    6.7440   17.9040 H   0  0  0  0  0  0  0  0  0  0  0  0
  2  1  2  0  0  0  0
  3  2  1  0  0  0  0
  4  3  1  0  0  0  0
  4  5  1  0  0  0  0
  5 44  1  0  0  0  0
  5 45  1  0  0  0  0
  5 46  1  0  0  0  0
  6  4  1  0  0  0  0
  6 47  1  0  0  0  0
  6 48  1  0  0  0  0
  6 49  1  0  0  0  0
  7  4  1  0  0  0  0
  7 50  1  0  0  0  0
  7 51  1  0  0  0  0
  7 52  1  0  0  0  0
  8  2  1  0  0  0  0
  8  9  1  0  0  0  0
  8 53  1  0  0  0  0
  9 12  2  0  0  0  0
 10  9  1  0  0  0  0
 10 15  1  0  0  0  0
 11 10  2  0  0  0  0
 12 13  1  0  0  0  0
 12 54  1  0  0  0  0
 13 55  1  0  0  0  0
 14 13  2  0  0  0  0
 14 56  1  0  0  0  0
 15 14  1  0  0  0  0
 16 15  1  0  0  0  0
 16 17  1  0  0  0  0
 16 57  1  6  0  0  0
 17 18  1  0  0  0  0
 17 58  1  0  0  0  0
 17 59  1  0  0  0  0
 18 19  1  0  0  0  0
 18 60  1  0  0  0  0
 19 61  1  0  0  0  0
 19 62  1  0  0  0  0
 20 18  1  0  0  0  0
 20 19  1  0  0  0  0
 20 63  1  0  0  0  0
 20 64  1  0  0  0  0
 21 16  1  0  0  0  0
 22 21  2  0  0  0  0
 23 21  1  0  0  0  0
 23 65  1  0  0  0  0
 24 32  1  0  0  0  0
 24 23  1  0  0  0  0
 24 66  1  1  0  0  0
 25 24  1  0  0  0  0
 25 67  1  0  0  0  0
 25 68  1  0  0  0  0
 26 25  1  0  0  0  0
 26 69  1  1  0  0  0
 27 26  1  0  0  0  0
 28 27  2  0  0  0  0
 29 27  1  0  0  0  0
 29 30  1  0  0  0  0
 29 70  1  0  0  0  0
 30 31  1  0  0  0  0
 30 71  1  0  0  0  0
 30 72  1  0  0  0  0
 31 26  1  0  0  0  0
 31 73  1  0  0  0  0
 31 74  1  0  0  0  0
 32 33  1  0  0  0  0
 32 75  1  6  0  0  0
 33 76  1  0  0  0  0
 34 36  1  0  0  0  0
 34 32  1  0  0  0  0
 35 34  2  0  0  0  0
 36 77  1  0  0  0  0
 37 36  1  0  0  0  0
 37 78  1  0  0  0  0
 37 79  1  0  0  0  0
 38 37  1  0  0  0  0
 38 39  2  0  0  0  0
 39 80  1  0  0  0  0
 40 39  1  0  0  0  0
 40 81  1  0  0  0  0
 41 40  2  0  0  0  0
 41 82  1  0  0  0  0
 42 43  2  0  0  0  0
 42 41  1  0  0  0  0
 42 83  1  0  0  0  0
 43 38  1  0  0  0  0
 43 84  1  0  0  0  0
M  END
$$$$
