naratriptan
     RDKit          2D

 23 25  0  0  0  0  0  0  0  0999 V2000
   -2.4324   -0.9269    0.0000 C   0  0  0  0  0  0  0  0  0  0  0  0
   -3.2972   -1.4256    0.0000 C   0  0  0  0  0  0  0  0  0  0  0  0
   -1.5557   -1.4280    0.0000 C   0  0  0  0  0  0  0  0  0  0  0  0
   -4.1608   -0.9220    0.0000 S   0  0  0  0  0  0  0  0  0  0  0  0
   -0.7038   -0.9148    0.0000 C   0  0  0  0  0  0  0  0  0  0  0  0
   -1.5580   -2.4190    0.0000 C   0  0  0  0  0  0  0  0  0  0  0  0
   -5.0240   -0.4173    0.0000 N   0  0  0  0  0  0  0  0  0  0  0  0
   -3.6563   -0.0582    0.0000 O   0  0  0  0  0  0  0  0  0  0  0  0
   -4.6649   -1.7853    0.0000 O   0  0  0  0  0  0  0  0  0  0  0  0
    0.1793   -1.4295    0.0000 C   0  0  0  0  0  0  0  0  0  0  0  0
   -0.6607   -2.9112    0.0000 C   0  0  0  0  0  0  0  0  0  0  0  0
   -5.0183    0.5829    0.0000 C   0  0  0  0  0  0  0  0  0  0  0  0
    1.1438   -1.0999    0.0000 C   0  0  0  0  0  0  0  0  0  0  0  0
    0.2048   -2.4181    0.0000 C   0  0  0  0  0  0  0  0  0  0  0  0
    1.7278   -1.9107    0.0000 C   0  0  0  0  0  0  0  0  0  0  0  0
    1.4434   -0.1637    0.0000 C   0  0  0  0  0  0  0  0  0  0  0  0
    1.1608   -2.7300    0.0000 N   0  0  0  0  0  0  0  0  0  0  0  0
    0.7976    0.5841    0.0000 C   0  0  0  0  0  0  0  0  0  0  0  0
    2.4165    0.0586    0.0000 C   0  0  0  0  0  0  0  0  0  0  0  0
    1.1002    1.5526    0.0000 C   0  0  0  0  0  0  0  0  0  0  0  0
    2.7487    1.0173    0.0000 C   0  0  0  0  0  0  0  0  0  0  0  0
    2.0794    1.7444    0.0000 N   0  0  0  0  0  0  0  0  0  0  0  0
    2.3938    2.7044    0.0000 C   0  0  0  0  0  0  0  0  0  0  0  0
  1  2  1  0
  1  3  1  0
  2  4  1  0
  3  5  2  0
  3  6  1  0
  4  7  1  0
  4  8  2  0
  4  9  2  0
  5 10  1  0
  6 11  2  0
  7 12  1  0
 10 13  1  0
 10 14  2  0
 11 14  1  0
 13 15  2  0
 13 16  1  0
 14 17  1  0
 15 17  1  0
 16 18  1  0
 16 19  1  0
 18 20  1  0
 19 21  1  0
 20 22  1  0
 21 22  1  0
 22 23  1  0
M  END
>  <cdk:Title>  (1) 
naratriptan

>  <Conformer>  (1) 
1

>  <SuperDrugID>  (1) 
SD001680

$$$$
etryptamine
     RDKit          2D

 14 15  0  0  0  0  0  0  0  0999 V2000
    1.3009    1.0516    0.0000 C   0  0  0  0  0  0  0  0  0  0  0  0
    0.6335    1.7927    0.0000 C   0  0  0  0  0  0  0  0  0  0  0  0
    1.0063    0.1047    0.0000 C   0  0  0  0  0  0  0  0  0  0  0  0
    0.9435    2.7434    0.0000 N   0  0  0  0  0  0  0  0  0  0  0  0
    0.0420   -0.2286    0.0000 C   0  0  0  0  0  0  0  0  0  0  0  0
    1.5994   -0.7166    0.0000 C   0  0  0  0  0  0  0  0  0  0  0  0
    0.0752   -1.2128    0.0000 C   0  0  0  0  0  0  0  0  0  0  0  0
   -0.8208    0.2859    0.0000 C   0  0  0  0  0  0  0  0  0  0  0  0
    1.0437   -1.5316    0.0000 N   0  0  0  0  0  0  0  0  0  0  0  0
   -0.8069   -1.7119    0.0000 C   0  0  0  0  0  0  0  0  0  0  0  0
   -1.6753   -0.2431    0.0000 C   0  0  0  0  0  0  0  0  0  0  0  0
   -1.6903   -1.2399    0.0000 C   0  0  0  0  0  0  0  0  0  0  0  0
   -0.3432    1.5860    0.0000 C   0  0  0  0  0  0  0  0  0  0  0  0
   -1.0103    2.3302    0.0000 C   0  0  0  0  0  0  0  0  0  0  0  0
  2  1  1  0
  1  3  1  0
  2  4  1  0
  3  5  1  0
  3  6  2  0
  5  7  2  0
  5  8  1  0
  6  9  1  0
  7  9  1  0
  7 10  1  0
  8 11  2  0
 10 12  2  0
 11 12  1  0
  2 13  1  0
 13 14  1  0
M  END
>  <cdk:Title>  (2) 
etryptamine

>  <Conformer>  (2) 
1

>  <SuperDrugID>  (2) 
SD000998

$$$$
panobinostat
     RDKit          2D

 26 28  0  0  0  0  0  0  0  0999 V2000
    4.0220   -0.4061    0.0000 C   0  0  0  0  0  0  0  0  0  0  0  0
    3.1557    0.0970    0.0000 C   0  0  0  0  0  0  0  0  0  0  0  0
    4.8825    0.0862    0.0000 C   0  0  0  0  0  0  0  0  0  0  0  0
    2.2861   -0.3986    0.0000 N   0  0  0  0  0  0  0  0  0  0  0  0
    4.9969    1.0914    0.0000 C   0  0  0  0  0  0  0  0  0  0  0  0
    5.7992   -0.2971    0.0000 C   0  0  0  0  0  0  0  0  0  0  0  0
    1.4212    0.1072    0.0000 C   0  0  0  0  0  0  0  0  0  0  0  0
    5.9633    1.2821    0.0000 C   0  0  0  0  0  0  0  0  0  0  0  0
    4.3225    1.8381    0.0000 C   0  0  0  0  0  0  0  0  0  0  0  0
    6.0115   -1.2847    0.0000 C   0  0  0  0  0  0  0  0  0  0  0  0
    6.4797    0.4320    0.0000 N   0  0  0  0  0  0  0  0  0  0  0  0
    0.5608   -0.3841    0.0000 C   0  0  0  0  0  0  0  0  0  0  0  0
    6.2863    2.2364    0.0000 C   0  0  0  0  0  0  0  0  0  0  0  0
    4.6461    2.7856    0.0000 C   0  0  0  0  0  0  0  0  0  0  0  0
    0.5472   -1.3876    0.0000 C   0  0  0  0  0  0  0  0  0  0  0  0
   -0.3105    0.1136    0.0000 C   0  0  0  0  0  0  0  0  0  0  0  0
    5.6127    2.9830    0.0000 C   0  0  0  0  0  0  0  0  0  0  0  0
   -0.3132   -1.8897    0.0000 C   0  0  0  0  0  0  0  0  0  0  0  0
   -1.1686   -0.3780    0.0000 C   0  0  0  0  0  0  0  0  0  0  0  0
   -1.1829   -1.3834    0.0000 C   0  0  0  0  0  0  0  0  0  0  0  0
   -2.0400   -1.8802    0.0000 C   0  0  0  0  0  0  0  0  0  0  0  0
   -2.0468   -2.8790    0.0000 C   0  0  0  0  0  0  0  0  0  0  0  0
   -2.9173   -3.3708    0.0000 C   0  0  0  0  0  0  0  0  0  0  0  0
   -2.9272   -4.3703    0.0000 N   0  0  0  0  0  0  0  0  0  0  0  0
   -3.7785   -2.8623    0.0000 O   0  0  0  0  0  0  0  0  0  0  0  0
   -3.7984   -4.8612    0.0000 O   0  0  0  0  0  0  0  0  0  0  0  0
  1  2  1  0
  1  3  1  0
  2  4  1  0
  3  5  1  0
  3  6  2  0
  4  7  1  0
  5  8  2  0
  5  9  1  0
  6 10  1  0
  6 11  1  0
  7 12  1  0
  8 11  1  0
  8 13  1  0
  9 14  2  0
 12 15  2  0
 12 16  1  0
 13 17  2  0
 14 17  1  0
 15 18  1  0
 16 19  2  0
 18 20  2  0
 19 20  1  0
 20 21  1  0
 21 22  2  0
 22 23  1  0
 23 24  1  0
 23 25  2  0
 24 26  1  0
M  END
>  <cdk:Title>  (3) 
panobinostat

>  <Conformer>  (3) 
1

>  <SuperDrugID>  (3) 
SD003712

$$$$
procainamide
     RDKit          2D

 17 17  0  0  0  0  0  0  0  0999 V2000
   -0.3118    0.7030    0.0000 C   0  0  0  0  0  0  0  0  0  0  0  0
   -1.1761    0.1992    0.0000 N   0  0  0  0  0  0  0  0  0  0  0  0
   -0.3163    1.7031    0.0000 O   0  0  0  0  0  0  0  0  0  0  0  0
    0.5476    0.2116    0.0000 C   0  0  0  0  0  0  0  0  0  0  0  0
   -2.0445    0.6954    0.0000 C   0  0  0  0  0  0  0  0  0  0  0  0
    1.4128    0.6916    0.0000 C   0  0  0  0  0  0  0  0  0  0  0  0
    0.5724   -0.7804    0.0000 C   0  0  0  0  0  0  0  0  0  0  0  0
   -2.9085    0.1915    0.0000 C   0  0  0  0  0  0  0  0  0  0  0  0
    2.3179    0.1923    0.0000 C   0  0  0  0  0  0  0  0  0  0  0  0
    1.4611   -1.3083    0.0000 C   0  0  0  0  0  0  0  0  0  0  0  0
   -3.7769    0.6877    0.0000 N   0  0  0  0  0  0  0  0  0  0  0  0
    2.3097   -0.7998    0.0000 C   0  0  0  0  0  0  0  0  0  0  0  0
   -4.6409    0.1840    0.0000 C   0  0  0  0  0  0  0  0  0  0  0  0
   -3.7812    1.6877    0.0000 C   0  0  0  0  0  0  0  0  0  0  0  0
    3.1865   -1.3014    0.0000 N   0  0  0  0  0  0  0  0  0  0  0  0
   -4.6367   -0.8160    0.0000 C   0  0  0  0  0  0  0  0  0  0  0  0
   -4.6494    2.1839    0.0000 C   0  0  0  0  0  0  0  0  0  0  0  0
  1  2  1  0
  1  3  2  0
  1  4  1  0
  2  5  1  0
  4  6  2  0
  4  7  1  0
  5  8  1  0
  6  9  1  0
  7 10  2  0
  8 11  1  0
  9 12  2  0
 10 12  1  0
 11 13  1  0
 11 14  1  0
 12 15  1  0
 13 16  1  0
 14 17  1  0
M  END
>  <cdk:Title>  (4) 
procainamide

>  <Conformer>  (4) 
1

>  <SuperDrugID>  (4) 
SD002036

$$$$
parsalmide
     RDKit          2D

 18 18  0  0  0  0  0  0  0  0999 V2000
   -0.9239   -0.8644    0.0000 C   0  0  0  0  0  0  0  0  0  0  0  0
   -0.0593   -1.3775    0.0000 C   0  0  0  0  0  0  0  0  0  0  0  0
    0.8149   -0.8741    0.0000 C   0  0  0  0  0  0  0  0  0  0  0  0
    0.8081    0.1248    0.0000 C   0  0  0  0  0  0  0  0  0  0  0  0
   -0.0554    0.6365    0.0000 C   0  0  0  0  0  0  0  0  0  0  0  0
   -0.9230    0.1271    0.0000 C   0  0  0  0  0  0  0  0  0  0  0  0
   -0.0526   -2.3684    0.0000 N   0  0  0  0  0  0  0  0  0  0  0  0
   -0.0537    1.6269    0.0000 O   0  0  0  0  0  0  0  0  0  0  0  0
   -0.9179    2.1305    0.0000 C   0  0  0  0  0  0  0  0  0  0  0  0
   -0.9138    3.1308    0.0000 C   0  0  0  0  0  0  0  0  0  0  0  0
   -0.9094    4.1310    0.0000 C   0  0  0  0  0  0  0  0  0  0  0  0
   -1.7900    0.6409    0.0000 C   0  0  0  0  0  0  0  0  0  0  0  0
   -1.7867    1.6404    0.0000 O   0  0  0  0  0  0  0  0  0  0  0  0
   -2.6579    0.1424    0.0000 N   0  0  0  0  0  0  0  0  0  0  0  0
   -3.5233    0.6432    0.0000 C   0  0  0  0  0  0  0  0  0  0  0  0
   -4.3898    0.1432    0.0000 C   0  0  0  0  0  0  0  0  0  0  0  0
   -4.3901   -0.8571    0.0000 C   0  0  0  0  0  0  0  0  0  0  0  0
   -5.2564   -1.3570    0.0000 C   0  0  0  0  0  0  0  0  0  0  0  0
  1  2  2  0
  2  3  1  0
  3  4  2  0
  4  5  1  0
  5  6  2  0
  1  6  1  0
  2  7  1  0
  5  8  1  0
  8  9  1  0
  9 10  1  0
 10 11  3  0
  6 12  1  0
 12 13  2  0
 12 14  1  0
 14 15  1  0
 15 16  1  0
 16 17  1  0
 17 18  1  0
M  END
>  <cdk:Title>  (5) 
parsalmide

>  <Conformer>  (5) 
1

>  <SuperDrugID>  (5) 
SD002944

$$$$
sertraline
     RDKit          2D

 20 22  0  0  0  0  0  0  0  0999 V2000
   -3.2430   -2.0226    0.0000 N   0  0  0  0  0  0  0  0  0  0  0  0
   -4.1100   -1.5242    0.0000 C   0  0  0  0  0  0  0  0  0  0  0  0
   -2.3778   -1.5210    0.0000 C   0  0  0  0  0  0  0  0  0  0  0  0
   -1.5110   -2.0192    0.0000 C   0  0  0  0  0  0  0  0  0  0  0  0
   -2.3798   -0.5210    0.0000 C   0  0  0  0  0  0  0  0  0  0  0  0
   -0.6458   -1.5176    0.0000 C   0  0  0  0  0  0  0  0  0  0  0  0
   -1.5090   -3.0192    0.0000 C   0  0  0  0  0  0  0  0  0  0  0  0
   -1.5148   -0.0194    0.0000 C   0  0  0  0  0  0  0  0  0  0  0  0
   -0.6478   -0.5176    0.0000 C   0  0  0  0  0  0  0  0  0  0  0  0
    0.2212   -2.0158    0.0000 C   0  0  0  0  0  0  0  0  0  0  0  0
   -0.6420   -3.5176    0.0000 C   0  0  0  0  0  0  0  0  0  0  0  0
    0.2202   -0.0142    0.0000 C   0  0  0  0  0  0  0  0  0  0  0  0
    0.2230   -3.0158    0.0000 C   0  0  0  0  0  0  0  0  0  0  0  0
    1.0902   -0.5142    0.0000 C   0  0  0  0  0  0  0  0  0  0  0  0
    0.2180    0.9892    0.0000 C   0  0  0  0  0  0  0  0  0  0  0  0
    1.9582   -0.0108    0.0000 C   0  0  0  0  0  0  0  0  0  0  0  0
    1.0862    1.4926    0.0000 C   0  0  0  0  0  0  0  0  0  0  0  0
    2.8282   -0.5108    0.0000 Cl  0  0  0  0  0  0  0  0  0  0  0  0
    1.9562    0.9926    0.0000 C   0  0  0  0  0  0  0  0  0  0  0  0
    2.8240    1.4960    0.0000 Cl  0  0  0  0  0  0  0  0  0  0  0  0
  1  2  1  0
  3  1  1  0
  3  4  1  0
  3  5  1  0
  4  6  2  0
  4  7  1  0
  5  8  1  0
  9  6  1  0
  6 10  1  0
  7 11  2  0
  9  8  1  0
  9 12  1  0
 10 13  2  0
 11 13  1  0
 12 14  2  0
 12 15  1  0
 14 16  1  0
 15 17  2  0
 16 18  1  0
 16 19  2  0
 17 19  1  0
 19 20  1  0
M  END
>  <cdk:Title>  (6) 
sertraline

>  <Conformer>  (6) 
1

>  <SuperDrugID>  (6) 
SD002190

$$$$
lidamidine
     RDKit          2D

 16 16  0  0  0  0  0  0  0  0999 V2000
   -0.9430   -0.7737    0.0000 N   0  0  0  0  0  0  0  0  0  0  0  0
   -1.8080   -0.2737    0.0000 C   0  0  0  0  0  0  0  0  0  0  0  0
   -0.0872   -0.2787    0.0000 C   0  0  0  0  0  0  0  0  0  0  0  0
   -2.6735   -0.7729    0.0000 N   0  0  0  0  0  0  0  0  0  0  0  0
   -1.8073    0.7263    0.0000 O   0  0  0  0  0  0  0  0  0  0  0  0
    0.7906   -0.7513    0.0000 C   0  0  0  0  0  0  0  0  0  0  0  0
   -0.0598    0.7197    0.0000 C   0  0  0  0  0  0  0  0  0  0  0  0
   -3.5385   -0.2725    0.0000 C   0  0  0  0  0  0  0  0  0  0  0  0
    0.7921   -1.7615    0.0000 C   0  0  0  0  0  0  0  0  0  0  0  0
    1.6720   -0.2732    0.0000 C   0  0  0  0  0  0  0  0  0  0  0  0
   -0.9351    1.2240    0.0000 C   0  0  0  0  0  0  0  0  0  0  0  0
    0.7936    1.2463    0.0000 C   0  0  0  0  0  0  0  0  0  0  0  0
   -4.4046   -0.7717    0.0000 N   0  0  0  0  0  0  0  0  0  0  0  0
   -3.5376    0.7276    0.0000 N   0  0  0  0  0  0  0  0  0  0  0  0
    1.6435    0.7251    0.0000 C   0  0  0  0  0  0  0  0  0  0  0  0
   -5.2700   -0.2712    0.0000 C   0  0  0  0  0  0  0  0  0  0  0  0
  1  2  1  0
  1  3  1  0
  2  4  1  0
  2  5  2  0
  3  6  2  0
  3  7  1  0
  4  8  1  0
  6  9  1  0
  6 10  1  0
  7 11  1  0
  7 12  2  0
  8 13  2  0
  8 14  1  0
 10 15  2  0
 12 15  1  0
 13 16  1  0
M  END
>  <cdk:Title>  (7) 
lidamidine

>  <Conformer>  (7) 
1

>  <SuperDrugID>  (7) 
SD001393

$$$$
rebamipide
     RDKit          2D

 26 28  0  0  0  0  0  0  0  0999 V2000
   -2.9192   -3.6402    0.0000 O   0  0  0  0  0  0  0  0  0  0  0  0
   -2.0532   -3.1414    0.0000 C   0  0  0  0  0  0  0  0  0  0  0  0
   -1.1873   -3.6422    0.0000 O   0  0  0  0  0  0  0  0  0  0  0  0
   -2.0514   -2.1420    0.0000 C   0  0  0  0  0  0  0  0  0  0  0  0
   -1.1977   -1.6493    0.0000 C   0  0  0  0  0  0  0  0  0  0  0  0
   -1.2010   -0.6429    0.0000 C   0  0  0  0  0  0  0  0  0  0  0  0
   -2.1056   -0.1352    0.0000 C   0  0  0  0  0  0  0  0  0  0  0  0
   -2.0749    0.9212    0.0000 C   0  0  0  0  0  0  0  0  0  0  0  0
   -2.9467    1.4315    0.0000 O   0  0  0  0  0  0  0  0  0  0  0  0
   -1.1810    1.4576    0.0000 N   0  0  0  0  0  0  0  0  0  0  0  0
   -0.3076    0.9245    0.0000 C   0  0  0  0  0  0  0  0  0  0  0  0
    0.5898    1.4143    0.0000 C   0  0  0  0  0  0  0  0  0  0  0  0
    1.4840    0.9104    0.0000 C   0  0  0  0  0  0  0  0  0  0  0  0
    1.4533   -0.1429    0.0000 C   0  0  0  0  0  0  0  0  0  0  0  0
    0.5717   -0.6728    0.0000 C   0  0  0  0  0  0  0  0  0  0  0  0
   -0.2904   -0.1455    0.0000 C   0  0  0  0  0  0  0  0  0  0  0  0
   -2.9054   -1.6394    0.0000 N   0  0  0  0  0  0  0  0  0  0  0  0
   -3.7654   -2.1262    0.0000 C   0  0  0  0  0  0  0  0  0  0  0  0
   -3.7754   -3.1261    0.0000 O   0  0  0  0  0  0  0  0  0  0  0  0
   -4.6088   -1.6251    0.0000 C   0  0  0  0  0  0  0  0  0  0  0  0
   -5.4949   -2.1072    0.0000 C   0  0  0  0  0  0  0  0  0  0  0  0
   -6.3699   -1.6112    0.0000 C   0  0  0  0  0  0  0  0  0  0  0  0
   -6.3439   -0.6025    0.0000 C   0  0  0  0  0  0  0  0  0  0  0  0
   -7.2144   -0.0900    0.0000 Cl  0  0  0  0  0  0  0  0  0  0  0  0
   -5.4743   -0.0908    0.0000 C   0  0  0  0  0  0  0  0  0  0  0  0
   -4.6164   -0.6158    0.0000 C   0  0  0  0  0  0  0  0  0  0  0  0
  1  2  1  0
  2  3  2  0
  4  2  1  0
  4  5  1  0
  5  6  1  0
  6  7  2  0
  7  8  1  0
  8  9  2  0
  8 10  1  0
 10 11  1  0
 11 12  2  0
 12 13  1  0
 13 14  2  0
 14 15  1  0
 15 16  2  0
  6 16  1  0
 11 16  1  0
  4 17  1  0
 17 18  1  0
 18 19  2  0
 18 20  1  0
 20 21  2  0
 21 22  1  0
 22 23  2  0
 23 24  1  0
 23 25  1  0
 25 26  2  0
 20 26  1  0
M  END
>  <cdk:Title>  (8) 
rebamipide

>  <Conformer>  (8) 
1

>  <SuperDrugID>  (8) 
SD002123

$$$$
talinolol
     RDKit          2D

 26 27  0  0  0  0  0  0  0  0999 V2000
    2.5924    1.0796    0.0000 O   0  0  0  0  0  0  0  0  0  0  0  0
    2.5919    2.0797    0.0000 C   0  0  0  0  0  0  0  0  0  0  0  0
    1.7177    0.5736    0.0000 C   0  0  0  0  0  0  0  0  0  0  0  0
    3.4579    2.5803    0.0000 C   0  0  0  0  0  0  0  0  0  0  0  0
    1.7413   -0.4308    0.0000 C   0  0  0  0  0  0  0  0  0  0  0  0
    0.8603    1.0937    0.0000 C   0  0  0  0  0  0  0  0  0  0  0  0
    3.4574    3.5805    0.0000 C   0  0  0  0  0  0  0  0  0  0  0  0
    4.3243    2.0808    0.0000 O   0  0  0  0  0  0  0  0  0  0  0  0
    0.8736   -0.9085    0.0000 C   0  0  0  0  0  0  0  0  0  0  0  0
    0.0140    0.5791    0.0000 C   0  0  0  0  0  0  0  0  0  0  0  0
    4.3233    4.0812    0.0000 N   0  0  0  0  0  0  0  0  0  0  0  0
   -0.0051   -0.4254    0.0000 C   0  0  0  0  0  0  0  0  0  0  0  0
    4.3226    5.0813    0.0000 C   0  0  0  0  0  0  0  0  0  0  0  0
   -0.8626   -0.9219    0.0000 N   0  0  0  0  0  0  0  0  0  0  0  0
    3.3226    5.0807    0.0000 C   0  0  0  0  0  0  0  0  0  0  0  0
    3.8220    5.9471    0.0000 C   0  0  0  0  0  0  0  0  0  0  0  0
    5.1883    5.5820    0.0000 C   0  0  0  0  0  0  0  0  0  0  0  0
   -1.7301   -0.4235    0.0000 C   0  0  0  0  0  0  0  0  0  0  0  0
   -2.5961   -0.9250    0.0000 N   0  0  0  0  0  0  0  0  0  0  0  0
   -1.7319    0.5766    0.0000 O   0  0  0  0  0  0  0  0  0  0  0  0
   -3.4733   -0.4260    0.0000 C   0  0  0  0  0  0  0  0  0  0  0  0
   -4.3140   -0.9132    0.0000 C   0  0  0  0  0  0  0  0  0  0  0  0
   -3.4520    0.5818    0.0000 C   0  0  0  0  0  0  0  0  0  0  0  0
   -5.2017   -0.4298    0.0000 C   0  0  0  0  0  0  0  0  0  0  0  0
   -4.3360    1.0661    0.0000 C   0  0  0  0  0  0  0  0  0  0  0  0
   -5.1779    0.5806    0.0000 C   0  0  0  0  0  0  0  0  0  0  0  0
  1  2  1  0
  1  3  1  0
  4  2  1  0
  3  5  2  0
  3  6  1  0
  4  7  1  0
  4  8  1  0
  5  9  1  0
  6 10  2  0
  7 11  1  0
  9 12  2  0
 10 12  1  0
 11 13  1  0
 12 14  1  0
 13 15  1  0
 13 16  1  0
 13 17  1  0
 14 18  1  0
 18 19  1  0
 18 20  2  0
 19 21  1  0
 21 22  1  0
 21 23  1  0
 22 24  1  0
 23 25  1  0
 24 26  1  0
 25 26  1  0
M  END
>  <cdk:Title>  (9) 
talinolol

>  <Conformer>  (9) 
1

>  <SuperDrugID>  (9) 
SD002301

$$$$
diethyltoluamide
     RDKit          2D

 14 14  0  0  0  0  0  0  0  0999 V2000
   -0.8556    0.5745    0.0000 C   0  0  0  0  0  0  0  0  0  0  0  0
   -1.7224    0.0766    0.0000 N   0  0  0  0  0  0  0  0  0  0  0  0
   -0.8535    1.5746    0.0000 O   0  0  0  0  0  0  0  0  0  0  0  0
   -0.0002    0.0777    0.0000 C   0  0  0  0  0  0  0  0  0  0  0  0
   -2.5873    0.5780    0.0000 C   0  0  0  0  0  0  0  0  0  0  0  0
   -1.7241   -0.9235    0.0000 C   0  0  0  0  0  0  0  0  0  0  0  0
    0.8866    0.5515    0.0000 C   0  0  0  0  0  0  0  0  0  0  0  0
    0.0274   -0.9191    0.0000 C   0  0  0  0  0  0  0  0  0  0  0  0
   -3.4542    0.0796    0.0000 C   0  0  0  0  0  0  0  0  0  0  0  0
   -2.5908   -1.4221    0.0000 C   0  0  0  0  0  0  0  0  0  0  0  0
    1.7704    0.0741    0.0000 C   0  0  0  0  0  0  0  0  0  0  0  0
    0.8811   -1.4483    0.0000 C   0  0  0  0  0  0  0  0  0  0  0  0
    2.6286    0.5672    0.0000 C   0  0  0  0  0  0  0  0  0  0  0  0
    1.7380   -0.9226    0.0000 C   0  0  0  0  0  0  0  0  0  0  0  0
  1  2  1  0
  1  3  2  0
  1  4  1  0
  2  5  1  0
  2  6  1  0
  4  7  2  0
  4  8  1  0
  5  9  1  0
  6 10  1  0
  7 11  1  0
  8 12  2  0
 11 13  1  0
 11 14  2  0
 12 14  1  0
M  END
>  <cdk:Title>  (10) 
diethyltoluamide

>  <Conformer>  (10) 
1

>  <SuperDrugID>  (10) 
SD003557

$$$$
heptobarbital
     RDKit          2D

 16 17  0  0  0  0  0  0  0  0999 V2000
   -0.1678   -0.8277    0.0000 C   0  0  0  0  0  0  0  0  0  0  0  0
   -1.1251   -1.1419    0.0000 C   0  0  0  0  0  0  0  0  0  0  0  0
   -1.9233   -1.7776    0.0000 C   0  0  0  0  0  0  0  0  0  0  0  0
   -1.2411   -0.1398    0.0000 C   0  0  0  0  0  0  0  0  0  0  0  0
   -0.6104   -2.0382    0.0000 C   0  0  0  0  0  0  0  0  0  0  0  0
   -1.8000   -2.7589    0.0000 O   0  0  0  0  0  0  0  0  0  0  0  0
   -2.8478   -1.3800    0.0000 N   0  0  0  0  0  0  0  0  0  0  0  0
   -0.4567    0.4640    0.0000 O   0  0  0  0  0  0  0  0  0  0  0  0
   -2.1782    0.2275    0.0000 N   0  0  0  0  0  0  0  0  0  0  0  0
    0.3695   -2.0171    0.0000 C   0  0  0  0  0  0  0  0  0  0  0  0
   -1.1111   -2.8835    0.0000 C   0  0  0  0  0  0  0  0  0  0  0  0
   -2.9960   -0.3820    0.0000 C   0  0  0  0  0  0  0  0  0  0  0  0
    0.8542   -2.8813    0.0000 C   0  0  0  0  0  0  0  0  0  0  0  0
   -0.5969   -3.7308    0.0000 C   0  0  0  0  0  0  0  0  0  0  0  0
   -3.9109   -0.0040    0.0000 O   0  0  0  0  0  0  0  0  0  0  0  0
    0.3829   -3.7437    0.0000 C   0  0  0  0  0  0  0  0  0  0  0  0
  1  2  1  0
  2  3  1  0
  2  4  1  0
  2  5  1  0
  3  6  2  0
  3  7  1  0
  4  8  2  0
  4  9  1  0
  5 10  2  0
  5 11  1  0
  7 12  1  0
  9 12  1  0
 10 13  1  0
 11 14  2  0
 12 15  2  0
 13 16  2  0
 14 16  1  0
M  END
>  <cdk:Title>  (11) 
heptobarbital

>  <Conformer>  (11) 
1

>  <SuperDrugID>  (11) 
SD003254

$$$$
trimetazidine
     RDKit          2D

 19 20  0  0  0  0  0  0  0  0999 V2000
   -1.1990    0.2766    0.0000 C   0  0  0  0  0  0  0  0  0  0  0  0
   -0.3290   -0.2234    0.0000 C   0  0  0  0  0  0  0  0  0  0  0  0
   -2.0640   -0.2250    0.0000 N   0  0  0  0  0  0  0  0  0  0  0  0
    0.5390    0.2800    0.0000 C   0  0  0  0  0  0  0  0  0  0  0  0
   -0.3270   -1.2268    0.0000 C   0  0  0  0  0  0  0  0  0  0  0  0
   -2.9310    0.2734    0.0000 C   0  0  0  0  0  0  0  0  0  0  0  0
   -2.0622   -1.2250    0.0000 C   0  0  0  0  0  0  0  0  0  0  0  0
    0.5370    1.2834    0.0000 O   0  0  0  0  0  0  0  0  0  0  0  0
    1.4090   -0.2200    0.0000 C   0  0  0  0  0  0  0  0  0  0  0  0
    0.5430   -1.7268    0.0000 C   0  0  0  0  0  0  0  0  0  0  0  0
   -3.7960   -0.2284    0.0000 C   0  0  0  0  0  0  0  0  0  0  0  0
   -2.9272   -1.7266    0.0000 C   0  0  0  0  0  0  0  0  0  0  0  0
    1.4020    1.7852    0.0000 C   0  0  0  0  0  0  0  0  0  0  0  0
    2.2770    0.2834    0.0000 O   0  0  0  0  0  0  0  0  0  0  0  0
    1.4110   -1.2234    0.0000 C   0  0  0  0  0  0  0  0  0  0  0  0
   -3.7942   -1.2282    0.0000 N   0  0  0  0  0  0  0  0  0  0  0  0
    2.2750    1.2834    0.0000 C   0  0  0  0  0  0  0  0  0  0  0  0
    2.2810   -1.7234    0.0000 O   0  0  0  0  0  0  0  0  0  0  0  0
    2.2830   -2.7234    0.0000 C   0  0  0  0  0  0  0  0  0  0  0  0
  1  2  1  0
  1  3  1  0
  2  4  2  0
  2  5  1  0
  3  6  1  0
  3  7  1  0
  4  8  1  0
  4  9  1  0
  5 10  2  0
  6 11  1  0
  7 12  1  0
  8 13  1  0
  9 14  1  0
  9 15  2  0
 10 15  1  0
 11 16  1  0
 12 16  1  0
 14 17  1  0
 15 18  1  0
 18 19  1  0
M  END
>  <cdk:Title>  (12) 
trimetazidine

>  <Conformer>  (12) 
1

>  <SuperDrugID>  (12) 
SD002480

$$$$
niraparib
     RDKit          2D

 24 27  0  0  0  0  0  0  0  0999 V2000
    4.0868    1.9194    0.0000 C   0  0  0  0  0  0  0  0  0  0  0  0
    3.0868    1.9196    0.0000 C   0  0  0  0  0  0  0  0  0  0  0  0
    2.5868    2.7856    0.0000 C   0  0  0  0  0  0  0  0  0  0  0  0
    3.0870    3.6516    0.0000 C   0  0  0  0  0  0  0  0  0  0  0  0
    4.0868    3.6516    0.0000 C   0  0  0  0  0  0  0  0  0  0  0  0
    4.5868    2.7854    0.0000 C   0  0  0  0  0  0  0  0  0  0  0  0
    1.6088    2.5778    0.0000 N   0  0  0  0  0  0  0  0  0  0  0  0
    1.5042    1.5832    0.0000 N   0  0  0  0  0  0  0  0  0  0  0  0
    2.4178    1.1764    0.0000 C   0  0  0  0  0  0  0  0  0  0  0  0
    0.6322    1.0798    0.0000 C   0  0  0  0  0  0  0  0  0  0  0  0
    0.6322    0.0728    0.0000 C   0  0  0  0  0  0  0  0  0  0  0  0
   -0.2398   -0.4306    0.0000 C   0  0  0  0  0  0  0  0  0  0  0  0
   -1.1118    0.0728    0.0000 C   0  0  0  0  0  0  0  0  0  0  0  0
   -1.1118    1.0798    0.0000 C   0  0  0  0  0  0  0  0  0  0  0  0
   -0.2398    1.5832    0.0000 C   0  0  0  0  0  0  0  0  0  0  0  0
   -1.9838   -0.4306    0.0000 C   0  0  0  0  0  0  0  0  0  0  0  0
   -2.8498    0.0694    0.0000 C   0  0  0  0  0  0  0  0  0  0  0  0
   -3.7158   -0.4306    0.0000 N   0  0  0  0  0  0  0  0  0  0  0  0
   -3.7158   -1.4306    0.0000 C   0  0  0  0  0  0  0  0  0  0  0  0
   -2.8500   -1.9306    0.0000 C   0  0  0  0  0  0  0  0  0  0  0  0
   -1.9838   -1.4306    0.0000 C   0  0  0  0  0  0  0  0  0  0  0  0
    2.5870    4.5176    0.0000 C   0  0  0  0  0  0  0  0  0  0  0  0
    3.0870    5.3836    0.0000 N   0  0  0  0  0  0  0  0  0  0  0  0
    1.5870    4.5176    0.0000 O   0  0  0  0  0  0  0  0  0  0  0  0
  1  2  1  0
  1  6  2  0
  2  3  1  0
  3  4  1  0
  4  5  2  0
  5  6  1  0
  7  8  1  0
  8  9  1  0
  2  9  2  0
  3  7  2  0
  8 10  1  0
 11 12  2  0
 12 13  1  0
 13 14  2  0
 14 15  1  0
 10 11  1  0
 10 15  2  0
 16 13  1  0
 17 18  1  0
 18 19  1  0
 19 20  1  0
 20 21  1  0
 16 17  1  0
 16 21  1  0
  4 22  1  0
 22 23  1  0
 22 24  2  0
M  END
>  <cdk:Title>  (13) 
niraparib

>  <Conformer>  (13) 
1

>  <SuperDrugID>  (13) 
SD003947

$$$$
triclocarban
     RDKit          2D

 19 20  0  0  0  0  0  0  0  0999 V2000
   -1.0235   -0.6616    0.0000 N   0  0  0  0  0  0  0  0  0  0  0  0
   -1.8906   -0.1626    0.0000 C   0  0  0  0  0  0  0  0  0  0  0  0
   -0.1487   -0.1546    0.0000 C   0  0  0  0  0  0  0  0  0  0  0  0
   -2.7569   -0.6633    0.0000 N   0  0  0  0  0  0  0  0  0  0  0  0
   -1.8916    0.8374    0.0000 O   0  0  0  0  0  0  0  0  0  0  0  0
    0.7133   -0.6613    0.0000 C   0  0  0  0  0  0  0  0  0  0  0  0
   -0.1603    0.8513    0.0000 C   0  0  0  0  0  0  0  0  0  0  0  0
   -3.6335   -0.1631    0.0000 C   0  0  0  0  0  0  0  0  0  0  0  0
    1.5664   -0.1558    0.0000 C   0  0  0  0  0  0  0  0  0  0  0  0
    0.7014    1.3422    0.0000 C   0  0  0  0  0  0  0  0  0  0  0  0
   -4.4759   -0.6489    0.0000 C   0  0  0  0  0  0  0  0  0  0  0  0
   -3.6113    0.8465    0.0000 C   0  0  0  0  0  0  0  0  0  0  0  0
    2.4427   -0.6583    0.0000 Cl  0  0  0  0  0  0  0  0  0  0  0  0
    1.5719    0.8502    0.0000 C   0  0  0  0  0  0  0  0  0  0  0  0
   -5.3596   -0.1635    0.0000 C   0  0  0  0  0  0  0  0  0  0  0  0
   -4.4972    1.3314    0.0000 C   0  0  0  0  0  0  0  0  0  0  0  0
    2.4282    1.3467    0.0000 Cl  0  0  0  0  0  0  0  0  0  0  0  0
   -5.3390    0.8443    0.0000 C   0  0  0  0  0  0  0  0  0  0  0  0
   -6.2151    1.3441    0.0000 Cl  0  0  0  0  0  0  0  0  0  0  0  0
  1  2  1  0
  1  3  1  0
  2  4  1  0
  2  5  2  0
  3  6  2  0
  3  7  1  0
  4  8  1  0
  6  9  1  0
  7 10  2  0
  8 11  2  0
  8 12  1  0
  9 13  1  0
  9 14  2  0
 10 14  1  0
 11 15  1  0
 12 16  2  0
 14 17  1  0
 15 18  2  0
 16 18  1  0
 18 19  1  0
M  END
>  <cdk:Title>  (14) 
triclocarban

>  <Conformer>  (14) 
1

>  <SuperDrugID>  (14) 
SD003110

$$$$
beclamide
     RDKit          2D

 13 13  0  0  0  0  0  0  0  0999 V2000
   -0.9166   -0.6972    0.0000 C   0  0  0  0  0  0  0  0  0  0  0  0
   -1.7832   -0.1981    0.0000 N   0  0  0  0  0  0  0  0  0  0  0  0
   -0.0599   -0.2016    0.0000 C   0  0  0  0  0  0  0  0  0  0  0  0
   -2.6487   -0.6989    0.0000 C   0  0  0  0  0  0  0  0  0  0  0  0
    0.8139   -0.6875    0.0000 C   0  0  0  0  0  0  0  0  0  0  0  0
   -0.0457    0.7999    0.0000 C   0  0  0  0  0  0  0  0  0  0  0  0
   -2.6476   -1.6988    0.0000 C   0  0  0  0  0  0  0  0  0  0  0  0
   -3.5152   -0.1997    0.0000 O   0  0  0  0  0  0  0  0  0  0  0  0
    1.6838   -0.2019    0.0000 C   0  0  0  0  0  0  0  0  0  0  0  0
    0.8087    1.3125    0.0000 C   0  0  0  0  0  0  0  0  0  0  0  0
   -3.5131   -2.1997    0.0000 C   0  0  0  0  0  0  0  0  0  0  0  0
    1.6669    0.7996    0.0000 C   0  0  0  0  0  0  0  0  0  0  0  0
   -3.5120   -3.1997    0.0000 Cl  0  0  0  0  0  0  0  0  0  0  0  0
  1  2  1  0
  1  3  1  0
  2  4  1  0
  3  5  2  0
  3  6  1  0
  4  7  1  0
  4  8  2  0
  5  9  1  0
  6 10  2  0
  7 11  1  0
  9 12  2  0
 10 12  1  0
 11 13  1  0
M  END
>  <cdk:Title>  (15) 
beclamide

>  <Conformer>  (15) 
1

>  <SuperDrugID>  (15) 
SD000244

$$$$
carbubarb
     RDKit          2D

 19 19  0  0  0  0  0  0  0  0999 V2000
   -0.6786   -0.5908    0.0000 C   0  0  0  0  0  0  0  0  0  0  0  0
   -0.6754   -1.5899    0.0000 C   0  0  0  0  0  0  0  0  0  0  0  0
    0.1887   -0.0781    0.0000 C   0  0  0  0  0  0  0  0  0  0  0  0
    0.1920   -2.0865    0.0000 O   0  0  0  0  0  0  0  0  0  0  0  0
    0.5202   -1.0370    0.0000 C   0  0  0  0  0  0  0  0  0  0  0  0
   -0.4849    0.6676    0.0000 C   0  0  0  0  0  0  0  0  0  0  0  0
    1.1861    0.1025    0.0000 C   0  0  0  0  0  0  0  0  0  0  0  0
    0.1951   -3.0860    0.0000 C   0  0  0  0  0  0  0  0  0  0  0  0
    1.4905   -1.2374    0.0000 C   0  0  0  0  0  0  0  0  0  0  0  0
   -1.4560    0.4760    0.0000 O   0  0  0  0  0  0  0  0  0  0  0  0
   -0.1452    1.6118    0.0000 N   0  0  0  0  0  0  0  0  0  0  0  0
    1.8459   -0.6338    0.0000 O   0  0  0  0  0  0  0  0  0  0  0  0
    1.4959    1.0566    0.0000 N   0  0  0  0  0  0  0  0  0  0  0  0
   -0.6694   -3.5886    0.0000 N   0  0  0  0  0  0  0  0  0  0  0  0
    1.0626   -3.5832    0.0000 O   0  0  0  0  0  0  0  0  0  0  0  0
    1.8022   -2.1865    0.0000 C   0  0  0  0  0  0  0  0  0  0  0  0
    0.8454    1.8230    0.0000 C   0  0  0  0  0  0  0  0  0  0  0  0
    2.7815   -2.3894    0.0000 C   0  0  0  0  0  0  0  0  0  0  0  0
    1.1647    2.7599    0.0000 O   0  0  0  0  0  0  0  0  0  0  0  0
  1  2  1  0
  1  3  1  0
  2  4  1  0
  3  5  1  0
  3  6  1  0
  3  7  1  0
  4  8  1  0
  5  9  1  0
  6 10  2  0
  6 11  1  0
  7 12  2  0
  7 13  1  0
  8 14  1  0
  8 15  2  0
  9 16  1  0
 11 17  1  0
 13 17  1  0
 16 18  1  0
 17 19  2  0
M  END
>  <cdk:Title>  (16) 
carbubarb

>  <Conformer>  (16) 
1

>  <SuperDrugID>  (16) 
SD003163

$$$$
mofebutazone
     RDKit          2D

 17 18  0  0  0  0  0  0  0  0999 V2000
   -1.7169    0.5552    0.0000 O   0  0  0  0  0  0  0  0  0  0  0  0
   -1.5221   -0.4359    0.0000 C   0  0  0  0  0  0  0  0  0  0  0  0
   -0.6107   -0.8454    0.0000 N   0  0  0  0  0  0  0  0  0  0  0  0
   -2.2088   -1.1606    0.0000 C   0  0  0  0  0  0  0  0  0  0  0  0
   -0.7411   -1.8358    0.0000 N   0  0  0  0  0  0  0  0  0  0  0  0
    0.2395   -0.3680    0.0000 C   0  0  0  0  0  0  0  0  0  0  0  0
   -3.1952   -1.0510    0.0000 C   0  0  0  0  0  0  0  0  0  0  0  0
   -1.7188   -2.0392    0.0000 C   0  0  0  0  0  0  0  0  0  0  0  0
    1.1182   -0.8498    0.0000 C   0  0  0  0  0  0  0  0  0  0  0  0
    0.2829    0.6326    0.0000 C   0  0  0  0  0  0  0  0  0  0  0  0
   -3.7942   -1.8514    0.0000 C   0  0  0  0  0  0  0  0  0  0  0  0
   -2.1446   -2.9353    0.0000 O   0  0  0  0  0  0  0  0  0  0  0  0
    2.0069   -0.3869    0.0000 C   0  0  0  0  0  0  0  0  0  0  0  0
    1.1394    1.1524    0.0000 C   0  0  0  0  0  0  0  0  0  0  0  0
   -3.4008   -2.7705    0.0000 C   0  0  0  0  0  0  0  0  0  0  0  0
    1.9848    0.6143    0.0000 C   0  0  0  0  0  0  0  0  0  0  0  0
   -4.0005   -3.5708    0.0000 C   0  0  0  0  0  0  0  0  0  0  0  0
  1  2  1  0
  2  3  1  0
  2  4  2  0
  3  5  1  0
  3  6  1  0
  4  7  1  0
  4  8  1  0
  5  8  1  0
  6  9  2  0
  6 10  1  0
  7 11  1  0
  8 12  2  0
  9 13  1  0
 10 14  2  0
 11 15  1  0
 13 16  2  0
 14 16  1  0
 15 17  1  0
M  END
>  <cdk:Title>  (17) 
mofebutazone

>  <Conformer>  (17) 
1

>  <SuperDrugID>  (17) 
SD001627

$$$$
ensulizole
     RDKit          2D

 19 21  0  0  0  0  0  0  0  0999 V2000
    3.8966   -0.7586    0.0000 S   0  0  0  0  0  0  0  0  0  0  0  0
    3.3966   -1.6246    0.0000 O   0  0  0  0  0  0  0  0  0  0  0  0
    4.3966    0.1074    0.0000 O   0  0  0  0  0  0  0  0  0  0  0  0
    4.7626   -1.2586    0.0000 O   0  0  0  0  0  0  0  0  0  0  0  0
    3.0306   -0.2586    0.0000 C   0  0  0  0  0  0  0  0  0  0  0  0
    2.1646   -0.7586    0.0000 C   0  0  0  0  0  0  0  0  0  0  0  0
    3.0306    0.7414    0.0000 C   0  0  0  0  0  0  0  0  0  0  0  0
    1.2986   -0.2586    0.0000 C   0  0  0  0  0  0  0  0  0  0  0  0
    2.1646    1.2414    0.0000 C   0  0  0  0  0  0  0  0  0  0  0  0
    1.2986    0.7414    0.0000 C   0  0  0  0  0  0  0  0  0  0  0  0
    0.3476   -0.5676    0.0000 N   0  0  0  0  0  0  0  0  0  0  0  0
    0.3476    1.0504    0.0000 N   0  0  0  0  0  0  0  0  0  0  0  0
   -0.2402    0.2414    0.0000 C   0  0  0  0  0  0  0  0  0  0  0  0
   -1.2402    0.2414    0.0000 C   0  0  0  0  0  0  0  0  0  0  0  0
   -1.7402    1.1074    0.0000 C   0  0  0  0  0  0  0  0  0  0  0  0
   -1.7402   -0.6246    0.0000 C   0  0  0  0  0  0  0  0  0  0  0  0
   -2.7402    1.1074    0.0000 C   0  0  0  0  0  0  0  0  0  0  0  0
   -2.7402   -0.6246    0.0000 C   0  0  0  0  0  0  0  0  0  0  0  0
   -3.2402    0.2414    0.0000 C   0  0  0  0  0  0  0  0  0  0  0  0
  1  2  2  0
  1  3  2  0
  1  4  1  0
  1  5  1  0
  5  6  2  0
  5  7  1  0
  6  8  1  0
  7  9  2  0
  8 10  2  0
  8 11  1  0
  9 10  1  0
 10 12  1  0
 11 13  1  0
 12 13  2  0
 13 14  1  0
 14 15  2  0
 14 16  1  0
 15 17  1  0
 16 18  2  0
 17 19  2  0
 18 19  1  0
M  END
>  <cdk:Title>  (18) 
ensulizole

>  <Conformer>  (18) 
1

>  <SuperDrugID>  (18) 
SD002753

$$$$
cinchocaine
     RDKit          2D

 25 26  0  0  0  0  0  0  0  0999 V2000
    0.9188    1.3199    0.0000 C   0  0  0  0  0  0  0  0  0  0  0  0
    0.0545    1.8218    0.0000 N   0  0  0  0  0  0  0  0  0  0  0  0
    1.7865    1.8167    0.0000 O   0  0  0  0  0  0  0  0  0  0  0  0
    0.9143    0.3110    0.0000 C   0  0  0  0  0  0  0  0  0  0  0  0
    0.0564    2.8208    0.0000 C   0  0  0  0  0  0  0  0  0  0  0  0
    0.0441   -0.1761    0.0000 C   0  0  0  0  0  0  0  0  0  0  0  0
    1.7862   -0.1867    0.0000 C   0  0  0  0  0  0  0  0  0  0  0  0
   -0.8087    3.3214    0.0000 C   0  0  0  0  0  0  0  0  0  0  0  0
    0.0521   -1.1716    0.0000 C   0  0  0  0  0  0  0  0  0  0  0  0
   -0.7984    0.3222    0.0000 C   0  0  0  0  0  0  0  0  0  0  0  0
    1.7718   -1.1863    0.0000 C   0  0  0  0  0  0  0  0  0  0  0  0
   -0.8072    4.3206    0.0000 N   0  0  0  0  0  0  0  0  0  0  0  0
    0.9144   -1.6865    0.0000 N   0  0  0  0  0  0  0  0  0  0  0  0
   -0.8416   -1.6717    0.0000 C   0  0  0  0  0  0  0  0  0  0  0  0
   -1.6797   -0.1984    0.0000 C   0  0  0  0  0  0  0  0  0  0  0  0
    2.6441   -1.6943    0.0000 O   0  0  0  0  0  0  0  0  0  0  0  0
    0.0597    4.8188    0.0000 C   0  0  0  0  0  0  0  0  0  0  0  0
   -1.6722    4.8220    0.0000 C   0  0  0  0  0  0  0  0  0  0  0  0
   -1.7010   -1.1901    0.0000 C   0  0  0  0  0  0  0  0  0  0  0  0
    2.6408   -2.6934    0.0000 C   0  0  0  0  0  0  0  0  0  0  0  0
    0.0618    5.8186    0.0000 C   0  0  0  0  0  0  0  0  0  0  0  0
   -1.6705    5.8218    0.0000 C   0  0  0  0  0  0  0  0  0  0  0  0
    3.5054   -3.1949    0.0000 C   0  0  0  0  0  0  0  0  0  0  0  0
    3.5036   -4.1944    0.0000 C   0  0  0  0  0  0  0  0  0  0  0  0
    4.3688   -4.6956    0.0000 C   0  0  0  0  0  0  0  0  0  0  0  0
  1  2  1  0
  1  3  2  0
  1  4  1  0
  2  5  1  0
  4  6  2  0
  4  7  1  0
  5  8  1  0
  6  9  1  0
  6 10  1  0
  7 11  2  0
  8 12  1  0
  9 13  2  0
  9 14  1  0
 10 15  2  0
 11 13  1  0
 11 16  1  0
 12 17  1  0
 12 18  1  0
 14 19  2  0
 15 19  1  0
 16 20  1  0
 17 21  1  0
 18 22  1  0
 20 23  1  0
 23 24  1  0
 24 25  1  0
M  END
>  <cdk:Title>  (19) 
cinchocaine

>  <Conformer>  (19) 
1

>  <SuperDrugID>  (19) 
SD000762

$$$$
flumazenil
     RDKit          2D

 22 24  0  0  0  0  0  0  0  0999 V2000
   -0.5212    2.5468    0.0000 C   0  0  0  0  0  0  0  0  0  0  0  0
   -0.1428    3.4729    0.0000 O   0  0  0  0  0  0  0  0  0  0  0  0
   -1.5114    2.4101    0.0000 O   0  0  0  0  0  0  0  0  0  0  0  0
    0.0923    1.7699    0.0000 C   0  0  0  0  0  0  0  0  0  0  0  0
   -0.7529    4.2641    0.0000 C   0  0  0  0  0  0  0  0  0  0  0  0
   -0.1795    0.7796    0.0000 C   0  0  0  0  0  0  0  0  0  0  0  0
    1.0947    1.7868    0.0000 N   0  0  0  0  0  0  0  0  0  0  0  0
   -0.3712    5.1884    0.0000 C   0  0  0  0  0  0  0  0  0  0  0  0
    0.6763    0.2405    0.0000 N   0  0  0  0  0  0  0  0  0  0  0  0
   -1.1321    0.5075    0.0000 C   0  0  0  0  0  0  0  0  0  0  0  0
    1.4670    0.8474    0.0000 C   0  0  0  0  0  0  0  0  0  0  0  0
    0.7447   -0.7411    0.0000 C   0  0  0  0  0  0  0  0  0  0  0  0
   -1.4642   -0.4342    0.0000 N   0  0  0  0  0  0  0  0  0  0  0  0
    0.0261   -1.4487    0.0000 C   0  0  0  0  0  0  0  0  0  0  0  0
    1.6748   -1.0392    0.0000 C   0  0  0  0  0  0  0  0  0  0  0  0
   -2.4711   -0.5146    0.0000 C   0  0  0  0  0  0  0  0  0  0  0  0
   -0.9895   -1.3058    0.0000 C   0  0  0  0  0  0  0  0  0  0  0  0
    0.2422   -2.4420    0.0000 C   0  0  0  0  0  0  0  0  0  0  0  0
    1.9238   -2.0327    0.0000 C   0  0  0  0  0  0  0  0  0  0  0  0
   -1.5445   -2.1265    0.0000 O   0  0  0  0  0  0  0  0  0  0  0  0
    1.1861   -2.7097    0.0000 C   0  0  0  0  0  0  0  0  0  0  0  0
    1.4192   -3.6926    0.0000 F   0  0  0  0  0  0  0  0  0  0  0  0
  1  2  1  0
  1  3  2  0
  1  4  1  0
  2  5  1  0
  4  6  2  0
  4  7  1  0
  5  8  1  0
  6  9  1  0
  6 10  1  0
  7 11  2  0
  9 11  1  0
  9 12  1  0
 10 13  1  0
 12 14  2  0
 12 15  1  0
 13 16  1  0
 13 17  1  0
 14 17  1  0
 14 18  1  0
 15 19  2  0
 17 20  2  0
 18 21  2  0
 19 21  1  0
 21 22  1  0
M  END
>  <cdk:Title>  (20) 
flumazenil

>  <Conformer>  (20) 
1

>  <SuperDrugID>  (20) 
SD001069

$$$$
celiprolol
     RDKit          2D

 27 27  0  0  0  0  0  0  0  0999 V2000
    2.5592    1.3612    0.0000 O   0  0  0  0  0  0  0  0  0  0  0  0
    2.5592    2.3612    0.0000 C   0  0  0  0  0  0  0  0  0  0  0  0
    1.6932    0.8612    0.0000 C   0  0  0  0  0  0  0  0  0  0  0  0
    3.4252    2.8612    0.0000 C   0  0  0  0  0  0  0  0  0  0  0  0
    1.6932   -0.1388    0.0000 C   0  0  0  0  0  0  0  0  0  0  0  0
    0.8272    1.3612    0.0000 C   0  0  0  0  0  0  0  0  0  0  0  0
    3.4252    3.8612    0.0000 C   0  0  0  0  0  0  0  0  0  0  0  0
    4.2912    2.3612    0.0000 O   0  0  0  0  0  0  0  0  0  0  0  0
    2.5592   -0.6388    0.0000 C   0  0  0  0  0  0  0  0  0  0  0  0
    0.8272   -0.6388    0.0000 C   0  0  0  0  0  0  0  0  0  0  0  0
   -0.0388    0.8612    0.0000 C   0  0  0  0  0  0  0  0  0  0  0  0
    4.2912    4.3612    0.0000 N   0  0  0  0  0  0  0  0  0  0  0  0
    2.5592   -1.6388    0.0000 C   0  0  0  0  0  0  0  0  0  0  0  0
    3.4252   -0.1388    0.0000 O   0  0  0  0  0  0  0  0  0  0  0  0
   -0.0388   -0.1388    0.0000 C   0  0  0  0  0  0  0  0  0  0  0  0
    4.2912    5.3612    0.0000 C   0  0  0  0  0  0  0  0  0  0  0  0
   -0.9046   -0.6388    0.0000 N   0  0  0  0  0  0  0  0  0  0  0  0
    3.2912    5.3612    0.0000 C   0  0  0  0  0  0  0  0  0  0  0  0
    3.7912    6.2272    0.0000 C   0  0  0  0  0  0  0  0  0  0  0  0
    5.1572    5.8612    0.0000 C   0  0  0  0  0  0  0  0  0  0  0  0
   -1.7706   -0.1390    0.0000 C   0  0  0  0  0  0  0  0  0  0  0  0
   -2.6366   -0.6392    0.0000 N   0  0  0  0  0  0  0  0  0  0  0  0
   -1.7708    0.8610    0.0000 O   0  0  0  0  0  0  0  0  0  0  0  0
   -3.5028   -0.1394    0.0000 C   0  0  0  0  0  0  0  0  0  0  0  0
   -2.6364   -1.6392    0.0000 C   0  0  0  0  0  0  0  0  0  0  0  0
   -4.3686   -0.6396    0.0000 C   0  0  0  0  0  0  0  0  0  0  0  0
   -3.5022   -2.1394    0.0000 C   0  0  0  0  0  0  0  0  0  0  0  0
  1  2  1  0
  1  3  1  0
  4  2  1  0
  3  5  2  0
  3  6  1  0
  4  7  1  0
  4  8  1  0
  5  9  1  0
  5 10  1  0
  6 11  2  0
  7 12  1  0
  9 13  1  0
  9 14  2  0
 10 15  2  0
 11 15  1  0
 12 16  1  0
 15 17  1  0
 16 18  1  0
 16 19  1  0
 16 20  1  0
 17 21  1  0
 21 22  1  0
 21 23  2  0
 22 24  1  0
 22 25  1  0
 24 26  1  0
 25 27  1  0
M  END
>  <cdk:Title>  (21) 
celiprolol

>  <Conformer>  (21) 
1

>  <SuperDrugID>  (21) 
SD000496

$$$$
halocarban
     RDKit          2D

 22 23  0  0  0  0  0  0  0  0999 V2000
   -0.9902   -0.4882    0.0000 N   0  0  0  0  0  0  0  0  0  0  0  0
   -1.8562    0.0116    0.0000 C   0  0  0  0  0  0  0  0  0  0  0  0
   -0.1244    0.0118    0.0000 C   0  0  0  0  0  0  0  0  0  0  0  0
   -2.7222   -0.4886    0.0000 N   0  0  0  0  0  0  0  0  0  0  0  0
   -1.8564    1.0116    0.0000 O   0  0  0  0  0  0  0  0  0  0  0  0
    0.7416   -0.4882    0.0000 C   0  0  0  0  0  0  0  0  0  0  0  0
   -0.1244    1.0118    0.0000 C   0  0  0  0  0  0  0  0  0  0  0  0
   -2.7220   -1.4884    0.0000 C   0  0  0  0  0  0  0  0  0  0  0  0
    1.6076    0.0118    0.0000 C   0  0  0  0  0  0  0  0  0  0  0  0
    0.7416    1.5118    0.0000 C   0  0  0  0  0  0  0  0  0  0  0  0
   -1.8560   -1.9885    0.0000 C   0  0  0  0  0  0  0  0  0  0  0  0
   -3.5878   -1.9889    0.0000 C   0  0  0  0  0  0  0  0  0  0  0  0
    2.4736   -0.4882    0.0000 C   0  0  0  0  0  0  0  0  0  0  0  0
    1.6076    1.0118    0.0000 C   0  0  0  0  0  0  0  0  0  0  0  0
   -1.8558   -2.9883    0.0000 C   0  0  0  0  0  0  0  0  0  0  0  0
   -3.5876   -2.9887    0.0000 C   0  0  0  0  0  0  0  0  0  0  0  0
    1.9736   -1.3542    0.0000 F   0  0  0  0  0  0  0  0  0  0  0  0
    2.9736   -1.3542    0.0000 F   0  0  0  0  0  0  0  0  0  0  0  0
    3.3396    0.0118    0.0000 F   0  0  0  0  0  0  0  0  0  0  0  0
    2.4736    1.5118    0.0000 Cl  0  0  0  0  0  0  0  0  0  0  0  0
   -2.7216   -3.4887    0.0000 C   0  0  0  0  0  0  0  0  0  0  0  0
   -2.7214   -4.4886    0.0000 Cl  0  0  0  0  0  0  0  0  0  0  0  0
  1  2  1  0
  1  3  1  0
  2  4  1  0
  2  5  2  0
  3  6  2  0
  3  7  1  0
  4  8  1  0
  6  9  1  0
  7 10  2  0
  8 11  2  0
  8 12  1  0
  9 13  1  0
  9 14  2  0
 10 14  1  0
 11 15  1  0
 12 16  2  0
 13 17  1  0
 13 18  1  0
 13 19  1  0
 14 20  1  0
 15 21  2  0
 16 21  1  0
 21 22  1  0
M  END
>  <cdk:Title>  (22) 
halocarban

>  <Conformer>  (22) 
1

>  <SuperDrugID>  (22) 
SD002695

$$$$
ropinirole
     RDKit          2D

 19 20  0  0  0  0  0  0  0  0999 V2000
    0.8976   -1.6984    0.0000 C   0  0  0  0  0  0  0  0  0  0  0  0
    1.8222   -2.0790    0.0000 C   0  0  0  0  0  0  0  0  0  0  0  0
    0.7641   -0.7175    0.0000 C   0  0  0  0  0  0  0  0  0  0  0  0
    1.9533   -3.0705    0.0000 N   0  0  0  0  0  0  0  0  0  0  0  0
   -0.1413   -0.3267    0.0000 C   0  0  0  0  0  0  0  0  0  0  0  0
    1.5526   -0.0746    0.0000 C   0  0  0  0  0  0  0  0  0  0  0  0
    1.1598   -3.6792    0.0000 C   0  0  0  0  0  0  0  0  0  0  0  0
    2.8770   -3.4533    0.0000 C   0  0  0  0  0  0  0  0  0  0  0  0
   -0.3048    0.6805    0.0000 C   0  0  0  0  0  0  0  0  0  0  0  0
   -1.0392   -0.7435    0.0000 C   0  0  0  0  0  0  0  0  0  0  0  0
    1.4476    0.9193    0.0000 C   0  0  0  0  0  0  0  0  0  0  0  0
    1.2900   -4.6707    0.0000 C   0  0  0  0  0  0  0  0  0  0  0  0
    3.0071   -4.4449    0.0000 C   0  0  0  0  0  0  0  0  0  0  0  0
   -1.2750    0.8469    0.0000 N   0  0  0  0  0  0  0  0  0  0  0  0
    0.5111    1.2744    0.0000 C   0  0  0  0  0  0  0  0  0  0  0  0
   -1.7606   -0.0221    0.0000 C   0  0  0  0  0  0  0  0  0  0  0  0
    0.4963   -5.2791    0.0000 C   0  0  0  0  0  0  0  0  0  0  0  0
    3.9306   -4.8282    0.0000 C   0  0  0  0  0  0  0  0  0  0  0  0
   -2.7410   -0.1588    0.0000 O   0  0  0  0  0  0  0  0  0  0  0  0
  1  2  1  0
  1  3  1  0
  2  4  1  0
  3  5  2  0
  3  6  1  0
  4  7  1  0
  4  8  1  0
  5  9  1  0
  5 10  1  0
  6 11  2  0
  7 12  1  0
  8 13  1  0
  9 14  1  0
  9 15  2  0
 10 16  1  0
 11 15  1  0
 12 17  1  0
 13 18  1  0
 14 16  1  0
 16 19  2  0
M  END
>  <cdk:Title>  (23) 
ropinirole

>  <Conformer>  (23) 
1

>  <SuperDrugID>  (23) 
SD002162

$$$$
procodazole
     RDKit          2D

 14 15  0  0  0  0  0  0  0  0999 V2000
   -1.7700    0.4260    0.0000 C   0  0  0  0  0  0  0  0  0  0  0  0
   -2.2700   -0.4400    0.0000 C   0  0  0  0  0  0  0  0  0  0  0  0
   -0.7701    0.4260    0.0000 C   0  0  0  0  0  0  0  0  0  0  0  0
   -1.7700   -1.3060    0.0000 C   0  0  0  0  0  0  0  0  0  0  0  0
   -0.1822   -0.3830    0.0000 N   0  0  0  0  0  0  0  0  0  0  0  0
   -0.1822    1.2350    0.0000 N   0  0  0  0  0  0  0  0  0  0  0  0
   -2.2700   -2.1720    0.0000 O   0  0  0  0  0  0  0  0  0  0  0  0
   -0.7700   -1.3060    0.0000 O   0  0  0  0  0  0  0  0  0  0  0  0
    0.7688   -0.0740    0.0000 C   0  0  0  0  0  0  0  0  0  0  0  0
    0.7688    0.9260    0.0000 C   0  0  0  0  0  0  0  0  0  0  0  0
    1.6348   -0.5740    0.0000 C   0  0  0  0  0  0  0  0  0  0  0  0
    1.6348    1.4260    0.0000 C   0  0  0  0  0  0  0  0  0  0  0  0
    2.5008   -0.0740    0.0000 C   0  0  0  0  0  0  0  0  0  0  0  0
    2.5008    0.9260    0.0000 C   0  0  0  0  0  0  0  0  0  0  0  0
  1  2  1  0
  1  3  1  0
  2  4  1  0
  3  5  2  0
  3  6  1  0
  4  7  1  0
  4  8  2  0
  5  9  1  0
  6 10  1  0
  9 10  2  0
  9 11  1  0
 10 12  1  0
 11 13  2  0
 12 14  2  0
 13 14  1  0
M  END
>  <cdk:Title>  (24) 
procodazole

>  <Conformer>  (24) 
1

>  <SuperDrugID>  (24) 
SD002041

$$$$
crotamiton
     RDKit          2D

 15 15  0  0  0  0  0  0  0  0999 V2000
   -0.5770    0.2120    0.0000 N   0  0  0  0  0  0  0  0  0  0  0  0
   -1.4430   -0.2880    0.0000 C   0  0  0  0  0  0  0  0  0  0  0  0
   -0.5770    1.2120    0.0000 C   0  0  0  0  0  0  0  0  0  0  0  0
    0.2890   -0.2880    0.0000 C   0  0  0  0  0  0  0  0  0  0  0  0
   -2.3090    0.2120    0.0000 C   0  0  0  0  0  0  0  0  0  0  0  0
   -1.4430   -1.2880    0.0000 O   0  0  0  0  0  0  0  0  0  0  0  0
   -1.4430    1.7120    0.0000 C   0  0  0  0  0  0  0  0  0  0  0  0
    0.2890   -1.2880    0.0000 C   0  0  0  0  0  0  0  0  0  0  0  0
    1.1550    0.2120    0.0000 C   0  0  0  0  0  0  0  0  0  0  0  0
   -3.1750   -0.2880    0.0000 C   0  0  0  0  0  0  0  0  0  0  0  0
   -0.5770   -1.7880    0.0000 C   0  0  0  0  0  0  0  0  0  0  0  0
    1.1550   -1.7880    0.0000 C   0  0  0  0  0  0  0  0  0  0  0  0
    2.0210   -0.2880    0.0000 C   0  0  0  0  0  0  0  0  0  0  0  0
    2.0210   -1.2880    0.0000 C   0  0  0  0  0  0  0  0  0  0  0  0
   -4.0410    0.2120    0.0000 C   0  0  0  0  0  0  0  0  0  0  0  0
  1  2  1  0
  1  3  1  0
  1  4  1  0
  2  5  1  0
  2  6  2  0
  3  7  1  0
  4  8  2  0
  4  9  1  0
  5 10  2  0
  8 11  1  0
  8 12  1  0
  9 13  2  0
 12 14  2  0
 13 14  1  0
 10 15  1  0
M  END
>  <cdk:Title>  (25) 
crotamiton

>  <Conformer>  (25) 
1

>  <SuperDrugID>  (25) 
SD000654

$$$$
acebutolol
     RDKit          2D

 24 24  0  0  0  0  0  0  0  0999 V2000
    1.5592    1.3612    0.0000 O   0  0  0  0  0  0  0  0  0  0  0  0
    1.5592    2.3612    0.0000 C   0  0  0  0  0  0  0  0  0  0  0  0
    0.6932    0.8612    0.0000 C   0  0  0  0  0  0  0  0  0  0  0  0
    2.4252    2.8612    0.0000 C   0  0  0  0  0  0  0  0  0  0  0  0
    0.6932   -0.1388    0.0000 C   0  0  0  0  0  0  0  0  0  0  0  0
   -0.1728    1.3612    0.0000 C   0  0  0  0  0  0  0  0  0  0  0  0
    2.4252    3.8612    0.0000 C   0  0  0  0  0  0  0  0  0  0  0  0
    3.2912    2.3612    0.0000 O   0  0  0  0  0  0  0  0  0  0  0  0
    1.5592   -0.6388    0.0000 C   0  0  0  0  0  0  0  0  0  0  0  0
   -0.1728   -0.6388    0.0000 C   0  0  0  0  0  0  0  0  0  0  0  0
   -1.0388    0.8612    0.0000 C   0  0  0  0  0  0  0  0  0  0  0  0
    3.2912    4.3612    0.0000 N   0  0  0  0  0  0  0  0  0  0  0  0
    1.5592   -1.6388    0.0000 C   0  0  0  0  0  0  0  0  0  0  0  0
    2.4252   -0.1388    0.0000 O   0  0  0  0  0  0  0  0  0  0  0  0
   -1.0388   -0.1388    0.0000 C   0  0  0  0  0  0  0  0  0  0  0  0
    3.2912    5.3612    0.0000 C   0  0  0  0  0  0  0  0  0  0  0  0
   -1.9046   -0.6388    0.0000 N   0  0  0  0  0  0  0  0  0  0  0  0
    4.1572    5.8612    0.0000 C   0  0  0  0  0  0  0  0  0  0  0  0
    2.4252    5.8612    0.0000 C   0  0  0  0  0  0  0  0  0  0  0  0
   -2.7706   -0.1390    0.0000 C   0  0  0  0  0  0  0  0  0  0  0  0
   -3.6366   -0.6392    0.0000 C   0  0  0  0  0  0  0  0  0  0  0  0
   -2.7708    0.8610    0.0000 O   0  0  0  0  0  0  0  0  0  0  0  0
   -4.5028   -0.1394    0.0000 C   0  0  0  0  0  0  0  0  0  0  0  0
   -5.3686   -0.6396    0.0000 C   0  0  0  0  0  0  0  0  0  0  0  0
  1  2  1  0
  1  3  1  0
  4  2  1  0
  3  5  2  0
  3  6  1  0
  4  7  1  0
  4  8  1  0
  5  9  1  0
  5 10  1  0
  6 11  2  0
  7 12  1  0
  9 13  1  0
  9 14  2  0
 10 15  2  0
 11 15  1  0
 12 16  1  0
 15 17  1  0
 16 18  1  0
 16 19  1  0
 17 20  1  0
 20 21  1  0
 20 22  2  0
 21 23  1  0
 23 24  1  0
M  END
>  <cdk:Title>  (26) 
acebutolol

>  <Conformer>  (26) 
1

>  <SuperDrugID>  (26) 
SD000018

$$$$
phenacemide
     RDKit          2D

 13 13  0  0  0  0  0  0  0  0999 V2000
   -4.3033   -0.9963    0.0000 N   0  0  0  0  0  0  0  0  0  0  0  0
   -3.4381   -0.4945    0.0000 C   0  0  0  0  0  0  0  0  0  0  0  0
   -3.4402    0.5055    0.0000 O   0  0  0  0  0  0  0  0  0  0  0  0
   -2.5709   -0.9929    0.0000 N   0  0  0  0  0  0  0  0  0  0  0  0
   -1.7055   -0.4913    0.0000 C   0  0  0  0  0  0  0  0  0  0  0  0
   -1.7072    0.5087    0.0000 O   0  0  0  0  0  0  0  0  0  0  0  0
   -0.8384   -0.9901    0.0000 C   0  0  0  0  0  0  0  0  0  0  0  0
    0.0363   -0.4839    0.0000 C   0  0  0  0  0  0  0  0  0  0  0  0
    0.8897   -1.0067    0.0000 C   0  0  0  0  0  0  0  0  0  0  0  0
    1.7381   -0.4853    0.0000 C   0  0  0  0  0  0  0  0  0  0  0  0
    1.7630    0.5163    0.0000 C   0  0  0  0  0  0  0  0  0  0  0  0
    0.8832    0.9934    0.0000 C   0  0  0  0  0  0  0  0  0  0  0  0
    0.0085    0.5176    0.0000 C   0  0  0  0  0  0  0  0  0  0  0  0
  1  2  1  0
  2  3  2  0
  2  4  1  0
  4  5  1  0
  5  6  2  0
  5  7  1  0
  7  8  1  0
  8  9  2  0
  9 10  1  0
 10 11  2  0
 11 12  1  0
 12 13  2  0
  8 13  1  0
M  END
>  <cdk:Title>  (27) 
phenacemide

>  <Conformer>  (27) 
1

>  <SuperDrugID>  (27) 
SD001895

$$$$
fenbendazole
     RDKit          2D

 21 23  0  0  0  0  0  0  0  0999 V2000
    3.6088   -0.2010    0.0000 S   0  0  0  0  0  0  0  0  0  0  0  0
    2.7428    0.2990    0.0000 C   0  0  0  0  0  0  0  0  0  0  0  0
    4.4748    0.2990    0.0000 C   0  0  0  0  0  0  0  0  0  0  0  0
    1.8768   -0.2010    0.0000 C   0  0  0  0  0  0  0  0  0  0  0  0
    2.7428    1.2990    0.0000 C   0  0  0  0  0  0  0  0  0  0  0  0
    4.4748    1.2990    0.0000 C   0  0  0  0  0  0  0  0  0  0  0  0
    5.3408   -0.2010    0.0000 C   0  0  0  0  0  0  0  0  0  0  0  0
    1.0108    0.2990    0.0000 C   0  0  0  0  0  0  0  0  0  0  0  0
    1.8768    1.7990    0.0000 C   0  0  0  0  0  0  0  0  0  0  0  0
    5.3408    1.7990    0.0000 C   0  0  0  0  0  0  0  0  0  0  0  0
    6.2068    0.2990    0.0000 C   0  0  0  0  0  0  0  0  0  0  0  0
    1.0108    1.2990    0.0000 C   0  0  0  0  0  0  0  0  0  0  0  0
    0.0598   -0.0100    0.0000 N   0  0  0  0  0  0  0  0  0  0  0  0
    6.2068    1.2990    0.0000 C   0  0  0  0  0  0  0  0  0  0  0  0
    0.0598    1.6080    0.0000 N   0  0  0  0  0  0  0  0  0  0  0  0
   -0.5281    0.7990    0.0000 C   0  0  0  0  0  0  0  0  0  0  0  0
   -1.5280    0.7990    0.0000 N   0  0  0  0  0  0  0  0  0  0  0  0
   -2.0280   -0.0670    0.0000 C   0  0  0  0  0  0  0  0  0  0  0  0
   -1.5280   -0.9330    0.0000 O   0  0  0  0  0  0  0  0  0  0  0  0
   -3.0280   -0.0670    0.0000 O   0  0  0  0  0  0  0  0  0  0  0  0
   -2.0280   -1.7990    0.0000 C   0  0  0  0  0  0  0  0  0  0  0  0
  1  2  1  0
  1  3  1  0
  2  4  2  0
  2  5  1  0
  3  6  2  0
  3  7  1  0
  4  8  1  0
  5  9  2  0
  6 10  1  0
  7 11  2  0
  8 12  2  0
  8 13  1  0
  9 12  1  0
 10 14  2  0
 11 14  1  0
 12 15  1  0
 13 16  1  0
 15 16  2  0
 16 17  1  0
 17 18  1  0
 18 19  1  0
 18 20  2  0
 19 21  1  0
M  END
>  <cdk:Title>  (28) 
fenbendazole

>  <Conformer>  (28) 
1

>  <SuperDrugID>  (28) 
SD003611

$$$$
disofenin
     RDKit          2D

 25 25  0  0  0  0  0  0  0  0999 V2000
   -1.4936    0.0166    0.0000 N   0  0  0  0  0  0  0  0  0  0  0  0
   -1.5292    0.9228    0.0000 C   0  0  0  0  0  0  0  0  0  0  0  0
   -0.5902   -0.4038    0.0000 C   0  0  0  0  0  0  0  0  0  0  0  0
   -2.3833    1.4435    0.0000 C   0  0  0  0  0  0  0  0  0  0  0  0
   -0.7349    1.3365    0.0000 O   0  0  0  0  0  0  0  0  0  0  0  0
    0.3532    0.1415    0.0000 C   0  0  0  0  0  0  0  0  0  0  0  0
   -0.5552   -1.4630    0.0000 C   0  0  0  0  0  0  0  0  0  0  0  0
   -2.3444    2.4571    0.0000 N   0  0  0  0  0  0  0  0  0  0  0  0
    0.4496    1.2643    0.0000 C   0  0  0  0  0  0  0  0  0  0  0  0
    1.2798   -0.3488    0.0000 C   0  0  0  0  0  0  0  0  0  0  0  0
   -1.4213   -1.9828    0.0000 C   0  0  0  0  0  0  0  0  0  0  0  0
    0.3553   -1.9870    0.0000 C   0  0  0  0  0  0  0  0  0  0  0  0
   -1.4566    2.9283    0.0000 C   0  0  0  0  0  0  0  0  0  0  0  0
   -3.1866    2.9939    0.0000 C   0  0  0  0  0  0  0  0  0  0  0  0
    1.3725    1.6510    0.0000 C   0  0  0  0  0  0  0  0  0  0  0  0
   -0.3391    1.9140    0.0000 C   0  0  0  0  0  0  0  0  0  0  0  0
    1.2742   -1.4111    0.0000 C   0  0  0  0  0  0  0  0  0  0  0  0
   -1.4043   -2.9825    0.0000 C   0  0  0  0  0  0  0  0  0  0  0  0
   -2.2956   -1.4974    0.0000 C   0  0  0  0  0  0  0  0  0  0  0  0
   -1.4211    3.9337    0.0000 C   0  0  0  0  0  0  0  0  0  0  0  0
   -4.0706    2.5365    0.0000 C   0  0  0  0  0  0  0  0  0  0  0  0
   -0.5376    4.4048    0.0000 O   0  0  0  0  0  0  0  0  0  0  0  0
   -2.2694    4.4647    0.0000 O   0  0  0  0  0  0  0  0  0  0  0  0
   -4.1159    1.5388    0.0000 O   0  0  0  0  0  0  0  0  0  0  0  0
   -4.9119    3.0765    0.0000 O   0  0  0  0  0  0  0  0  0  0  0  0
  1  2  1  0
  1  3  1  0
  2  4  1  0
  2  5  2  0
  3  6  2  0
  3  7  1  0
  4  8  1  0
  6  9  1  0
  6 10  1  0
  7 11  1  0
  7 12  2  0
  8 13  1  0
  8 14  1  0
  9 15  1  0
  9 16  1  0
 10 17  2  0
 11 18  1  0
 11 19  1  0
 12 17  1  0
 13 20  1  0
 14 21  1  0
 20 22  1  0
 20 23  2  0
 21 24  1  0
 21 25  2  0
M  END
>  <cdk:Title>  (29) 
disofenin

>  <Conformer>  (29) 
1

>  <SuperDrugID>  (29) 
SD002737

$$$$
benzamidosalicylate
     RDKit          2D

 19 20  0  0  0  0  0  0  0  0999 V2000
    1.4878   -1.6120    0.0000 C   0  0  0  0  0  0  0  0  0  0  0  0
    2.3538   -1.1122    0.0000 O   0  0  0  0  0  0  0  0  0  0  0  0
    1.4878   -2.6120    0.0000 O   0  0  0  0  0  0  0  0  0  0  0  0
    0.6220   -1.1120    0.0000 C   0  0  0  0  0  0  0  0  0  0  0  0
    0.6220   -0.1120    0.0000 C   0  0  0  0  0  0  0  0  0  0  0  0
   -0.2440   -1.6120    0.0000 C   0  0  0  0  0  0  0  0  0  0  0  0
    1.4878    0.3880    0.0000 O   0  0  0  0  0  0  0  0  0  0  0  0
   -0.2440    0.3880    0.0000 C   0  0  0  0  0  0  0  0  0  0  0  0
   -1.1100   -1.1120    0.0000 C   0  0  0  0  0  0  0  0  0  0  0  0
   -1.1100   -0.1120    0.0000 C   0  0  0  0  0  0  0  0  0  0  0  0
   -1.9760    0.3880    0.0000 N   0  0  0  0  0  0  0  0  0  0  0  0
   -2.8420   -0.1120    0.0000 C   0  0  0  0  0  0  0  0  0  0  0  0
   -3.7080    0.3880    0.0000 O   0  0  0  0  0  0  0  0  0  0  0  0
   -2.8420   -1.1120    0.0000 C   0  0  0  0  0  0  0  0  0  0  0  0
   -1.9760   -1.6120    0.0000 C   0  0  0  0  0  0  0  0  0  0  0  0
   -3.7080   -1.6120    0.0000 C   0  0  0  0  0  0  0  0  0  0  0  0
   -1.9760   -2.6120    0.0000 C   0  0  0  0  0  0  0  0  0  0  0  0
   -3.7080   -2.6120    0.0000 C   0  0  0  0  0  0  0  0  0  0  0  0
   -2.8420   -3.1120    0.0000 C   0  0  0  0  0  0  0  0  0  0  0  0
  1  2  1  0
  1  3  2  0
  1  4  1  0
  4  5  2  0
  4  6  1  0
  5  7  1  0
  5  8  1  0
  6  9  2  0
  8 10  2  0
  9 10  1  0
 10 11  1  0
 11 12  1  0
 12 13  2  0
 12 14  1  0
 14 15  2  0
 14 16  1  0
 15 17  1  0
 16 18  2  0
 17 19  2  0
 18 19  1  0
M  END
>  <cdk:Title>  (30) 
benzamidosalicylate

>  <Conformer>  (30) 
1

>  <SuperDrugID>  (30) 
SD000275

$$$$
carbuterol
     RDKit          2D

 19 19  0  0  0  0  0  0  0  0999 V2000
   -1.4454   -0.3456    0.0000 C   0  0  0  0  0  0  0  0  0  0  0  0
   -1.4454   -1.3456    0.0000 C   0  0  0  0  0  0  0  0  0  0  0  0
   -2.3114    0.1544    0.0000 O   0  0  0  0  0  0  0  0  0  0  0  0
   -0.5794    0.1544    0.0000 C   0  0  0  0  0  0  0  0  0  0  0  0
   -2.3114   -1.8456    0.0000 N   0  0  0  0  0  0  0  0  0  0  0  0
    0.2866   -0.3456    0.0000 C   0  0  0  0  0  0  0  0  0  0  0  0
   -0.5794    1.1544    0.0000 C   0  0  0  0  0  0  0  0  0  0  0  0
   -2.3114   -2.8456    0.0000 C   0  0  0  0  0  0  0  0  0  0  0  0
    1.1526    0.1544    0.0000 C   0  0  0  0  0  0  0  0  0  0  0  0
    0.2866    1.6544    0.0000 C   0  0  0  0  0  0  0  0  0  0  0  0
   -1.3114   -2.8456    0.0000 C   0  0  0  0  0  0  0  0  0  0  0  0
   -1.8114   -3.7116    0.0000 C   0  0  0  0  0  0  0  0  0  0  0  0
   -3.1774   -3.3456    0.0000 C   0  0  0  0  0  0  0  0  0  0  0  0
    2.0186   -0.3456    0.0000 N   0  0  0  0  0  0  0  0  0  0  0  0
    1.1526    1.1544    0.0000 C   0  0  0  0  0  0  0  0  0  0  0  0
    2.8846    0.1544    0.0000 C   0  0  0  0  0  0  0  0  0  0  0  0
    2.0186    1.6544    0.0000 O   0  0  0  0  0  0  0  0  0  0  0  0
    3.7506   -0.3456    0.0000 N   0  0  0  0  0  0  0  0  0  0  0  0
    2.8846    1.1544    0.0000 O   0  0  0  0  0  0  0  0  0  0  0  0
  1  2  1  0
  1  3  1  0
  1  4  1  0
  2  5  1  0
  4  6  2  0
  4  7  1  0
  5  8  1  0
  6  9  1  0
  7 10  2  0
  8 11  1  0
  8 12  1  0
  8 13  1  0
  9 14  1  0
  9 15  2  0
 10 15  1  0
 14 16  1  0
 15 17  1  0
 16 18  1  0
 16 19  2  0
M  END
>  <cdk:Title>  (31) 
carbuterol

>  <Conformer>  (31) 
1

>  <SuperDrugID>  (31) 
SD000436

$$$$
butenafine
     RDKit          2D

 24 26  0  0  0  0  0  0  0  0999 V2000
    0.9157    1.3196    0.0000 C   0  0  0  0  0  0  0  0  0  0  0  0
    0.0529    1.8205    0.0000 N   0  0  0  0  0  0  0  0  0  0  0  0
    0.9101    0.3122    0.0000 C   0  0  0  0  0  0  0  0  0  0  0  0
    0.0555    2.8180    0.0000 C   0  0  0  0  0  0  0  0  0  0  0  0
   -0.8144    1.3228    0.0000 C   0  0  0  0  0  0  0  0  0  0  0  0
    0.0447   -0.1737    0.0000 C   0  0  0  0  0  0  0  0  0  0  0  0
    1.7852   -0.1898    0.0000 C   0  0  0  0  0  0  0  0  0  0  0  0
   -0.7992    3.3127    0.0000 C   0  0  0  0  0  0  0  0  0  0  0  0
    0.0514   -1.1686    0.0000 C   0  0  0  0  0  0  0  0  0  0  0  0
   -0.7973    0.3222    0.0000 C   0  0  0  0  0  0  0  0  0  0  0  0
    1.7743   -1.1880    0.0000 C   0  0  0  0  0  0  0  0  0  0  0  0
   -1.6769    2.8323    0.0000 C   0  0  0  0  0  0  0  0  0  0  0  0
   -0.8185    4.3138    0.0000 C   0  0  0  0  0  0  0  0  0  0  0  0
    0.9190   -1.6843    0.0000 C   0  0  0  0  0  0  0  0  0  0  0  0
   -0.8425   -1.6718    0.0000 C   0  0  0  0  0  0  0  0  0  0  0  0
   -1.6797   -0.1985    0.0000 C   0  0  0  0  0  0  0  0  0  0  0  0
   -2.5515    3.3150    0.0000 C   0  0  0  0  0  0  0  0  0  0  0  0
   -1.6719    4.8331    0.0000 C   0  0  0  0  0  0  0  0  0  0  0  0
   -1.6991   -1.1911    0.0000 C   0  0  0  0  0  0  0  0  0  0  0  0
   -2.5283    4.3160    0.0000 C   0  0  0  0  0  0  0  0  0  0  0  0
   -3.4021    4.8230    0.0000 C   0  0  0  0  0  0  0  0  0  0  0  0
   -3.9040    3.9581    0.0000 C   0  0  0  0  0  0  0  0  0  0  0  0
   -4.4020    4.8253    0.0000 C   0  0  0  0  0  0  0  0  0  0  0  0
   -3.3997    5.8230    0.0000 C   0  0  0  0  0  0  0  0  0  0  0  0
  1  2  1  0
  1  3  1  0
  2  4  1  0
  2  5  1  0
  3  6  1  0
  3  7  2  0
  4  8  1  0
  6  9  2  0
  6 10  1  0
  7 11  1  0
  8 12  2  0
  8 13  1  0
  9 14  1  0
  9 15  1  0
 10 16  2  0
 11 14  2  0
 12 17  1  0
 13 18  2  0
 15 19  2  0
 16 19  1  0
 17 20  2  0
 18 20  1  0
 20 21  1  0
 21 22  1  0
 21 23  1  0
 21 24  1  0
M  END
>  <cdk:Title>  (32) 
butenafine

>  <Conformer>  (32) 
1

>  <SuperDrugID>  (32) 
SD000386

$$$$
bagrosin
     RDKit          2D

 22 25  0  0  0  0  0  0  0  0999 V2000
   -1.3908   -2.0504    0.0000 C   0  0  0  0  0  0  0  0  0  0  0  0
   -1.5060   -1.0532    0.0000 C   0  0  0  0  0  0  0  0  0  0  0  0
   -0.5022   -1.0430    0.0000 C   0  0  0  0  0  0  0  0  0  0  0  0
   -2.4854   -1.2718    0.0000 N   0  0  0  0  0  0  0  0  0  0  0  0
   -1.4112   -0.0540    0.0000 C   0  0  0  0  0  0  0  0  0  0  0  0
    0.0066   -1.9038    0.0000 C   0  0  0  0  0  0  0  0  0  0  0  0
   -0.0110   -0.1720    0.0000 C   0  0  0  0  0  0  0  0  0  0  0  0
   -2.9960   -0.4078    0.0000 C   0  0  0  0  0  0  0  0  0  0  0  0
   -0.5470    0.4566    0.0000 O   0  0  0  0  0  0  0  0  0  0  0  0
   -2.3320    0.3448    0.0000 N   0  0  0  0  0  0  0  0  0  0  0  0
    1.0066   -1.8938    0.0000 C   0  0  0  0  0  0  0  0  0  0  0  0
    0.9890   -0.1618    0.0000 C   0  0  0  0  0  0  0  0  0  0  0  0
   -3.9952   -0.3130    0.0000 O   0  0  0  0  0  0  0  0  0  0  0  0
    1.5152   -2.7546    0.0000 C   0  0  0  0  0  0  0  0  0  0  0  0
    1.4976   -1.0226    0.0000 C   0  0  0  0  0  0  0  0  0  0  0  0
    2.5152   -2.7444    0.0000 C   0  0  0  0  0  0  0  0  0  0  0  0
    1.0242   -3.6256    0.0000 C   0  0  0  0  0  0  0  0  0  0  0  0
    2.4976   -1.0126    0.0000 C   0  0  0  0  0  0  0  0  0  0  0  0
    3.0064   -1.8734    0.0000 C   0  0  0  0  0  0  0  0  0  0  0  0
    3.0240   -3.6054    0.0000 C   0  0  0  0  0  0  0  0  0  0  0  0
    1.5328   -4.4864    0.0000 C   0  0  0  0  0  0  0  0  0  0  0  0
    2.5328   -4.4764    0.0000 C   0  0  0  0  0  0  0  0  0  0  0  0
  2  1  1  0
  2  3  1  0
  2  4  1  0
  2  5  1  0
  3  6  2  0
  3  7  1  0
  4  8  1  0
  5  9  2  0
  5 10  1  0
  6 11  1  0
  7 12  2  0
  8 10  1  0
  8 13  2  0
 11 14  2  0
 11 15  1  0
 12 15  1  0
 14 16  1  0
 14 17  1  0
 15 18  2  0
 16 19  2  0
 16 20  1  0
 17 21  2  0
 18 19  1  0
 20 22  2  0
 21 22  1  0
M  END
>  <cdk:Title>  (33) 
bagrosin

>  <Conformer>  (33) 
1

>  <SuperDrugID>  (33) 
SD003224

$$$$
bendamustine
     RDKit          2D

 23 24  0  0  0  0  0  0  0  0999 V2000
   -0.4912   -1.3340    0.0000 C   0  0  0  0  0  0  0  0  0  0  0  0
   -0.1822   -0.3830    0.0000 N   0  0  0  0  0  0  0  0  0  0  0  0
    0.7688   -0.0740    0.0000 C   0  0  0  0  0  0  0  0  0  0  0  0
   -0.7701    0.4260    0.0000 C   0  0  0  0  0  0  0  0  0  0  0  0
    0.7688    0.9260    0.0000 C   0  0  0  0  0  0  0  0  0  0  0  0
    1.6348   -0.5740    0.0000 C   0  0  0  0  0  0  0  0  0  0  0  0
   -1.7700    0.4260    0.0000 C   0  0  0  0  0  0  0  0  0  0  0  0
   -0.1822    1.2350    0.0000 N   0  0  0  0  0  0  0  0  0  0  0  0
    1.6348    1.4260    0.0000 C   0  0  0  0  0  0  0  0  0  0  0  0
    2.5008   -0.0740    0.0000 C   0  0  0  0  0  0  0  0  0  0  0  0
   -2.2700   -0.4400    0.0000 C   0  0  0  0  0  0  0  0  0  0  0  0
    2.5008    0.9260    0.0000 C   0  0  0  0  0  0  0  0  0  0  0  0
   -1.7700   -1.3060    0.0000 C   0  0  0  0  0  0  0  0  0  0  0  0
    3.3668    1.4260    0.0000 N   0  0  0  0  0  0  0  0  0  0  0  0
   -2.2700   -2.1720    0.0000 C   0  0  0  0  0  0  0  0  0  0  0  0
    3.3668    2.4260    0.0000 C   0  0  0  0  0  0  0  0  0  0  0  0
    4.2328    0.9260    0.0000 C   0  0  0  0  0  0  0  0  0  0  0  0
   -1.7700   -3.0380    0.0000 O   0  0  0  0  0  0  0  0  0  0  0  0
   -3.2700   -2.1720    0.0000 O   0  0  0  0  0  0  0  0  0  0  0  0
    4.2328    2.9260    0.0000 C   0  0  0  0  0  0  0  0  0  0  0  0
    5.0988    1.4260    0.0000 C   0  0  0  0  0  0  0  0  0  0  0  0
    4.2328    3.9260    0.0000 Cl  0  0  0  0  0  0  0  0  0  0  0  0
    5.9648    0.9260    0.0000 Cl  0  0  0  0  0  0  0  0  0  0  0  0
  1  2  1  0
  2  3  1  0
  2  4  1  0
  3  5  2  0
  3  6  1  0
  4  7  1  0
  4  8  2  0
  5  8  1  0
  5  9  1  0
  6 10  2  0
  7 11  1  0
  9 12  2  0
 10 12  1  0
 11 13  1  0
 12 14  1  0
 13 15  1  0
 14 16  1  0
 14 17  1  0
 15 18  1  0
 15 19  2  0
 16 20  1  0
 17 21  1  0
 20 22  1  0
 21 23  1  0
M  END
>  <cdk:Title>  (34) 
bendamustine

>  <Conformer>  (34) 
1

>  <SuperDrugID>  (34) 
SD000253

$$$$
tolonium
     RDKit          2D

 19 21  0  0  0  0  0  0  0  0999 V2000
    1.9168   -1.6970    0.0000 N   0  0  0  0  0  0  0  0  0  0  0  0
    1.7108   -2.6756    0.0000 C   0  0  0  0  0  0  0  0  0  0  0  0
    2.8672   -1.3862    0.0000 C   0  0  0  0  0  0  0  0  0  0  0  0
    1.1752   -1.0318    0.0000 C   0  0  0  0  0  0  0  0  0  0  0  0
    1.3806   -0.0568    0.0000 C   0  0  0  0  0  0  0  0  0  0  0  0
    0.2282   -1.3412    0.0000 C   0  0  0  0  0  0  0  0  0  0  0  0
    0.6392    0.6084    0.0000 C   0  0  0  0  0  0  0  0  0  0  0  0
   -0.5134   -0.6758    0.0000 C   0  0  0  0  0  0  0  0  0  0  0  0
   -0.3078    0.2990    0.0000 C   0  0  0  0  0  0  0  0  0  0  0  0
    0.8446    1.5834    0.0000 S   0  0  0  0  0  0  0  0  0  0  0  0
   -1.0494    0.9644    0.0000 N   0  0  0  0  0  0  0  0  0  0  0  0
    0.1030    2.2486    0.0000 C   0  0  0  0  0  0  0  0  0  0  0  0
   -0.8440    1.9392    0.0000 C   0  0  0  0  0  0  0  0  0  0  0  0
    0.3086    3.2236    0.0000 C   0  0  0  0  0  0  0  0  0  0  0  0
   -1.5854    2.6046    0.0000 C   0  0  0  0  0  0  0  0  0  0  0  0
   -0.4330    3.8888    0.0000 C   0  0  0  0  0  0  0  0  0  0  0  0
   -1.3800    3.5794    0.0000 C   0  0  0  0  0  0  0  0  0  0  0  0
   -0.2276    4.8638    0.0000 N   0  0  0  0  0  0  0  0  0  0  0  0
   -2.1216    4.2448    0.0000 C   0  0  0  0  0  0  0  0  0  0  0  0
  1  2  1  0
  1  3  1  0
  1  4  1  0
  4  5  2  0
  4  6  1  0
  5  7  1  0
  6  8  2  0
  7  9  2  0
  7 10  1  0
  8  9  1  0
  9 11  1  0
 10 12  2  0
 11 13  2  0
 12 13  1  0
 12 14  1  0
 13 15  1  0
 14 16  2  0
 15 17  2  0
 16 17  1  0
 16 18  1  0
 17 19  1  0
M  CHG  1  10   1
M  END
>  <cdk:Title>  (35) 
tolonium

>  <Conformer>  (35) 
1

>  <SuperDrugID>  (35) 
SD002432

$$$$
clobenzorex
     RDKit          2D

 18 19  0  0  0  0  0  0  0  0999 V2000
   -0.9041    0.4721    0.0000 C   0  0  0  0  0  0  0  0  0  0  0  0
   -1.7705   -0.0265    0.0000 N   0  0  0  0  0  0  0  0  0  0  0  0
   -0.0302   -0.0345    0.0000 C   0  0  0  0  0  0  0  0  0  0  0  0
   -2.6361    0.4742    0.0000 C   0  0  0  0  0  0  0  0  0  0  0  0
    0.8244    0.4699    0.0000 C   0  0  0  0  0  0  0  0  0  0  0  0
   -0.0427   -1.0397    0.0000 C   0  0  0  0  0  0  0  0  0  0  0  0
   -3.5015   -0.0254    0.0000 C   0  0  0  0  0  0  0  0  0  0  0  0
   -2.6357    1.4742    0.0000 C   0  0  0  0  0  0  0  0  0  0  0  0
    0.8273    1.4597    0.0000 Cl  0  0  0  0  0  0  0  0  0  0  0  0
    1.6893   -0.0473    0.0000 C   0  0  0  0  0  0  0  0  0  0  0  0
    0.8341   -1.5362    0.0000 C   0  0  0  0  0  0  0  0  0  0  0  0
   -4.3790    0.4720    0.0000 C   0  0  0  0  0  0  0  0  0  0  0  0
    1.7006   -1.0525    0.0000 C   0  0  0  0  0  0  0  0  0  0  0  0
   -5.2251   -0.0186    0.0000 C   0  0  0  0  0  0  0  0  0  0  0  0
   -4.3657    1.4758    0.0000 C   0  0  0  0  0  0  0  0  0  0  0  0
   -6.1076    0.4710    0.0000 C   0  0  0  0  0  0  0  0  0  0  0  0
   -5.2412    1.9670    0.0000 C   0  0  0  0  0  0  0  0  0  0  0  0
   -6.0894    1.4804    0.0000 C   0  0  0  0  0  0  0  0  0  0  0  0
  1  2  1  0
  1  3  1  0
  4  2  1  0
  3  5  2  0
  3  6  1  0
  4  7  1  0
  4  8  1  0
  5  9  1  0
  5 10  1  0
  6 11  2  0
  7 12  1  0
 10 13  2  0
 11 13  1  0
 12 14  2  0
 12 15  1  0
 14 16  1  0
 15 17  2  0
 16 18  2  0
 17 18  1  0
M  END
>  <cdk:Title>  (36) 
clobenzorex

>  <Conformer>  (36) 
1

>  <SuperDrugID>  (36) 
SD000603

$$$$
flutamide
     RDKit          2D

 19 19  0  0  0  0  0  0  0  0999 V2000
    2.6124   -0.7056    0.0000 C   0  0  0  0  0  0  0  0  0  0  0  0
    2.1124   -1.5716    0.0000 F   0  0  0  0  0  0  0  0  0  0  0  0
    3.1124   -1.5716    0.0000 F   0  0  0  0  0  0  0  0  0  0  0  0
    3.4784   -0.2056    0.0000 F   0  0  0  0  0  0  0  0  0  0  0  0
    1.7464   -0.2056    0.0000 C   0  0  0  0  0  0  0  0  0  0  0  0
    1.7464    0.7944    0.0000 C   0  0  0  0  0  0  0  0  0  0  0  0
    0.8804   -0.7056    0.0000 C   0  0  0  0  0  0  0  0  0  0  0  0
    2.6124    1.2944    0.0000 N   0  0  0  0  0  0  0  0  0  0  0  0
    0.8804    1.2944    0.0000 C   0  0  0  0  0  0  0  0  0  0  0  0
    0.0144   -0.2056    0.0000 C   0  0  0  0  0  0  0  0  0  0  0  0
    3.4784    0.7944    0.0000 O   0  0  0  0  0  0  0  0  0  0  0  0
    2.6124    2.2944    0.0000 O   0  0  0  0  0  0  0  0  0  0  0  0
    0.0144    0.7944    0.0000 C   0  0  0  0  0  0  0  0  0  0  0  0
   -0.8516   -0.7056    0.0000 N   0  0  0  0  0  0  0  0  0  0  0  0
   -1.7176   -0.2056    0.0000 C   0  0  0  0  0  0  0  0  0  0  0  0
   -2.5836   -0.7056    0.0000 C   0  0  0  0  0  0  0  0  0  0  0  0
   -1.7176    0.7944    0.0000 O   0  0  0  0  0  0  0  0  0  0  0  0
   -3.4496   -0.2056    0.0000 C   0  0  0  0  0  0  0  0  0  0  0  0
   -2.5836   -1.7056    0.0000 C   0  0  0  0  0  0  0  0  0  0  0  0
  1  2  1  0
  1  3  1  0
  1  4  1  0
  1  5  1  0
  5  6  2  0
  5  7  1  0
  6  8  1  0
  6  9  1  0
  7 10  2  0
  8 11  1  0
  8 12  2  0
  9 13  2  0
 10 13  1  0
 10 14  1  0
 14 15  1  0
 15 16  1  0
 15 17  2  0
 16 18  1  0
 16 19  1  0
M  CHG  2   8   1  11  -1
M  END
>  <cdk:Title>  (37) 
flutamide

>  <Conformer>  (37) 
1

>  <SuperDrugID>  (37) 
SD001096

$$$$
lomustine
     RDKit          2D

 15 15  0  0  0  0  0  0  0  0999 V2000
   -0.8608   -0.9204    0.0000 N   0  0  0  0  0  0  0  0  0  0  0  0
   -1.7274   -0.4213    0.0000 C   0  0  0  0  0  0  0  0  0  0  0  0
   -0.0041   -0.4248    0.0000 C   0  0  0  0  0  0  0  0  0  0  0  0
   -2.5929   -0.9221    0.0000 N   0  0  0  0  0  0  0  0  0  0  0  0
   -1.7283    0.5787    0.0000 O   0  0  0  0  0  0  0  0  0  0  0  0
    0.8697   -0.9107    0.0000 C   0  0  0  0  0  0  0  0  0  0  0  0
    0.0102    0.5768    0.0000 C   0  0  0  0  0  0  0  0  0  0  0  0
   -3.4594   -0.4229    0.0000 C   0  0  0  0  0  0  0  0  0  0  0  0
   -2.5919   -1.9221    0.0000 N   0  0  0  0  0  0  0  0  0  0  0  0
    1.7396   -0.4251    0.0000 C   0  0  0  0  0  0  0  0  0  0  0  0
    0.8644    1.0894    0.0000 C   0  0  0  0  0  0  0  0  0  0  0  0
   -4.3249   -0.9238    0.0000 C   0  0  0  0  0  0  0  0  0  0  0  0
   -3.4575   -2.4229    0.0000 O   0  0  0  0  0  0  0  0  0  0  0  0
    1.7226    0.5764    0.0000 C   0  0  0  0  0  0  0  0  0  0  0  0
   -4.3239   -1.9238    0.0000 Cl  0  0  0  0  0  0  0  0  0  0  0  0
  1  2  1  0
  1  3  1  0
  2  4  1  0
  2  5  2  0
  3  6  1  0
  3  7  1  0
  4  8  1  0
  4  9  1  0
  6 10  1  0
  7 11  1  0
  8 12  1  0
  9 13  2  0
 10 14  1  0
 11 14  1  0
 12 15  1  0
M  END
>  <cdk:Title>  (38) 
lomustine

>  <Conformer>  (38) 
1

>  <SuperDrugID>  (38) 
SD001410

$$$$
teriflunomide
     RDKit          2D

 19 19  0  0  0  0  0  0  0  0999 V2000
    2.6830    1.0399    0.0000 C   0  0  0  0  0  0  0  0  0  0  0  0
    2.1784    1.9033    0.0000 F   0  0  0  0  0  0  0  0  0  0  0  0
    3.1784    1.9084    0.0000 F   0  0  0  0  0  0  0  0  0  0  0  0
    3.5513    0.5442    0.0000 F   0  0  0  0  0  0  0  0  0  0  0  0
    1.8109    0.5308    0.0000 C   0  0  0  0  0  0  0  0  0  0  0  0
    1.8208   -0.4693    0.0000 C   0  0  0  0  0  0  0  0  0  0  0  0
    0.9455    1.0322    0.0000 C   0  0  0  0  0  0  0  0  0  0  0  0
    0.9548   -0.9739    0.0000 C   0  0  0  0  0  0  0  0  0  0  0  0
    0.0798    0.5271    0.0000 C   0  0  0  0  0  0  0  0  0  0  0  0
    0.0903   -0.4724    0.0000 C   0  0  0  0  0  0  0  0  0  0  0  0
   -0.7810   -0.9804    0.0000 N   0  0  0  0  0  0  0  0  0  0  0  0
   -1.6475   -0.4839    0.0000 C   0  0  0  0  0  0  0  0  0  0  0  0
   -2.5103   -0.9869    0.0000 C   0  0  0  0  0  0  0  0  0  0  0  0
   -1.6512    0.5162    0.0000 O   0  0  0  0  0  0  0  0  0  0  0  0
   -3.3780   -0.4907    0.0000 C   0  0  0  0  0  0  0  0  0  0  0  0
   -2.5054   -1.9867    0.0000 C   0  0  0  0  0  0  0  0  0  0  0  0
   -4.2417   -0.9942    0.0000 C   0  0  0  0  0  0  0  0  0  0  0  0
   -3.3820    0.5093    0.0000 O   0  0  0  0  0  0  0  0  0  0  0  0
   -2.4999   -2.9867    0.0000 N   0  0  0  0  0  0  0  0  0  0  0  0
  1  2  1  0
  1  3  1  0
  1  4  1  0
  1  5  1  0
  5  6  2  0
  5  7  1  0
  6  8  1  0
  7  9  2  0
  8 10  2  0
  9 10  1  0
 10 11  1  0
 11 12  1  0
 12 13  1  0
 12 14  2  0
 13 15  1  0
 13 16  1  0
 15 17  1  0
 15 18  2  0
 16 19  3  0
M  END
>  <cdk:Title>  (39) 
teriflunomide

>  <Conformer>  (39) 
1

>  <SuperDrugID>  (39) 
SD003673

$$$$
clenbuterol
     RDKit          2D

 17 17  0  0  0  0  0  0  0  0999 V2000
   -0.9292   -0.5622    0.0000 C   0  0  0  0  0  0  0  0  0  0  0  0
   -1.7961   -0.0635    0.0000 C   0  0  0  0  0  0  0  0  0  0  0  0
   -0.9279   -1.5622    0.0000 O   0  0  0  0  0  0  0  0  0  0  0  0
   -0.0729   -0.0659    0.0000 C   0  0  0  0  0  0  0  0  0  0  0  0
   -2.6613   -0.5647    0.0000 N   0  0  0  0  0  0  0  0  0  0  0  0
    0.8006   -0.5414    0.0000 C   0  0  0  0  0  0  0  0  0  0  0  0
   -0.0513    0.9322    0.0000 C   0  0  0  0  0  0  0  0  0  0  0  0
   -3.5280   -0.0658    0.0000 C   0  0  0  0  0  0  0  0  0  0  0  0
    1.6878   -0.0514    0.0000 C   0  0  0  0  0  0  0  0  0  0  0  0
    0.8142    1.4595    0.0000 C   0  0  0  0  0  0  0  0  0  0  0  0
   -3.0291    0.8009    0.0000 C   0  0  0  0  0  0  0  0  0  0  0  0
   -4.0292    0.7995    0.0000 C   0  0  0  0  0  0  0  0  0  0  0  0
   -4.3933   -0.5670    0.0000 C   0  0  0  0  0  0  0  0  0  0  0  0
    2.5456   -0.5454    0.0000 Cl  0  0  0  0  0  0  0  0  0  0  0  0
    1.6662    0.9466    0.0000 C   0  0  0  0  0  0  0  0  0  0  0  0
    0.8114    2.4494    0.0000 Cl  0  0  0  0  0  0  0  0  0  0  0  0
    2.5402    1.4532    0.0000 N   0  0  0  0  0  0  0  0  0  0  0  0
  1  2  1  0
  1  3  1  0
  1  4  1  0
  2  5  1  0
  4  6  2  0
  4  7  1  0
  5  8  1  0
  6  9  1  0
  7 10  2  0
  8 11  1  0
  8 12  1  0
  8 13  1  0
  9 14  1  0
  9 15  2  0
 10 15  1  0
 10 16  1  0
 15 17  1  0
M  END
>  <cdk:Title>  (40) 
clenbuterol

>  <Conformer>  (40) 
1

>  <SuperDrugID>  (40) 
SD000592

$$$$
phenbenzamine
     RDKit          2D

 19 20  0  0  0  0  0  0  0  0999 V2000
   -1.8396   -0.0285    0.0000 N   0  0  0  0  0  0  0  0  0  0  0  0
   -0.9763   -0.5288    0.0000 C   0  0  0  0  0  0  0  0  0  0  0  0
   -2.7055   -0.5279    0.0000 C   0  0  0  0  0  0  0  0  0  0  0  0
   -1.8326    0.9814    0.0000 C   0  0  0  0  0  0  0  0  0  0  0  0
   -0.1049   -0.0248    0.0000 C   0  0  0  0  0  0  0  0  0  0  0  0
   -2.7052   -1.5281    0.0000 C   0  0  0  0  0  0  0  0  0  0  0  0
   -2.7168    1.4657    0.0000 C   0  0  0  0  0  0  0  0  0  0  0  0
   -0.9910    1.4673    0.0000 C   0  0  0  0  0  0  0  0  0  0  0  0
    0.7603   -0.5322    0.0000 C   0  0  0  0  0  0  0  0  0  0  0  0
   -0.1141    0.9783    0.0000 C   0  0  0  0  0  0  0  0  0  0  0  0
   -3.5707   -2.0291    0.0000 N   0  0  0  0  0  0  0  0  0  0  0  0
   -2.6958    2.4735    0.0000 C   0  0  0  0  0  0  0  0  0  0  0  0
   -0.9677    2.4775    0.0000 C   0  0  0  0  0  0  0  0  0  0  0  0
    1.6146   -0.0297    0.0000 C   0  0  0  0  0  0  0  0  0  0  0  0
    0.7470    1.4690    0.0000 C   0  0  0  0  0  0  0  0  0  0  0  0
   -3.5695   -3.0291    0.0000 C   0  0  0  0  0  0  0  0  0  0  0  0
   -4.4373   -1.5301    0.0000 C   0  0  0  0  0  0  0  0  0  0  0  0
   -1.8550    2.9610    0.0000 C   0  0  0  0  0  0  0  0  0  0  0  0
    1.6190    0.9734    0.0000 C   0  0  0  0  0  0  0  0  0  0  0  0
  1  2  1  0
  1  3  1  0
  1  4  1  0
  2  5  1  0
  3  6  1  0
  4  7  2  0
  4  8  1  0
  5  9  2  0
  5 10  1  0
  6 11  1  0
  7 12  1  0
  8 13  2  0
  9 14  1  0
 10 15  2  0
 11 16  1  0
 11 17  1  0
 12 18  2  0
 13 18  1  0
 14 19  2  0
 15 19  1  0
M  END
>  <cdk:Title>  (41) 
phenbenzamine

>  <Conformer>  (41) 
1

>  <SuperDrugID>  (41) 
SD000187

$$$$
methaphenilene
     RDKit          2D

 18 19  0  0  0  0  0  0  0  0999 V2000
   -1.7836   -0.0869    0.0000 N   0  0  0  0  0  0  0  0  0  0  0  0
   -0.9236   -0.5801    0.0000 C   0  0  0  0  0  0  0  0  0  0  0  0
   -2.6496   -0.5879    0.0000 C   0  0  0  0  0  0  0  0  0  0  0  0
   -1.7887    0.9136    0.0000 C   0  0  0  0  0  0  0  0  0  0  0  0
   -0.0653   -0.0865    0.0000 C   0  0  0  0  0  0  0  0  0  0  0  0
   -2.6482   -1.5883    0.0000 C   0  0  0  0  0  0  0  0  0  0  0  0
   -2.6393    1.4102    0.0000 C   0  0  0  0  0  0  0  0  0  0  0  0
   -0.9133    1.4034    0.0000 C   0  0  0  0  0  0  0  0  0  0  0  0
    0.0768    0.9206    0.0000 C   0  0  0  0  0  0  0  0  0  0  0  0
    0.8577   -0.4831    0.0000 S   0  0  0  0  0  0  0  0  0  0  0  0
   -3.5136   -2.0898    0.0000 N   0  0  0  0  0  0  0  0  0  0  0  0
   -2.6431    2.4139    0.0000 C   0  0  0  0  0  0  0  0  0  0  0  0
   -0.9162    2.4062    0.0000 C   0  0  0  0  0  0  0  0  0  0  0  0
    1.0372    1.1136    0.0000 C   0  0  0  0  0  0  0  0  0  0  0  0
    1.5565    0.2410    0.0000 C   0  0  0  0  0  0  0  0  0  0  0  0
   -3.5120   -3.0899    0.0000 C   0  0  0  0  0  0  0  0  0  0  0  0
   -4.3804   -1.5912    0.0000 C   0  0  0  0  0  0  0  0  0  0  0  0
   -1.7659    2.9034    0.0000 C   0  0  0  0  0  0  0  0  0  0  0  0
  1  2  1  0
  1  3  1  0
  1  4  1  0
  2  5  1  0
  3  6  1  0
  4  7  2  0
  4  8  1  0
  5  9  2  0
  5 10  1  0
  6 11  1  0
  7 12  1  0
  8 13  2  0
  9 14  1  0
 10 15  1  0
 11 16  1  0
 11 17  1  0
 12 18  2  0
 13 18  1  0
 14 15  2  0
M  END
>  <cdk:Title>  (42) 
methaphenilene

>  <Conformer>  (42) 
1

>  <SuperDrugID>  (42) 
SD001537

$$$$
acetanilide
     RDKit          2D

 10 10  0  0  0  0  0  0  0  0999 V2000
   -2.7110   -0.5298    0.0000 C   0  0  0  0  0  0  0  0  0  0  0  0
   -1.8449   -0.0300    0.0000 C   0  0  0  0  0  0  0  0  0  0  0  0
   -1.8446    0.9700    0.0000 O   0  0  0  0  0  0  0  0  0  0  0  0
   -0.9792   -0.5301    0.0000 N   0  0  0  0  0  0  0  0  0  0  0  0
   -0.1050   -0.0247    0.0000 C   0  0  0  0  0  0  0  0  0  0  0  0
    0.7601   -0.5322    0.0000 C   0  0  0  0  0  0  0  0  0  0  0  0
    1.6145   -0.0299    0.0000 C   0  0  0  0  0  0  0  0  0  0  0  0
    1.6190    0.9732    0.0000 C   0  0  0  0  0  0  0  0  0  0  0  0
    0.7472    1.4690    0.0000 C   0  0  0  0  0  0  0  0  0  0  0  0
   -0.1140    0.9784    0.0000 C   0  0  0  0  0  0  0  0  0  0  0  0
  1  2  1  0
  2  3  2  0
  2  4  1  0
  4  5  1  0
  5  6  2  0
  6  7  1  0
  7  8  2  0
  8  9  1  0
  9 10  2  0
  5 10  1  0
M  END
>  <cdk:Title>  (43) 
acetanilide

>  <Conformer>  (43) 
1

>  <SuperDrugID>  (43) 
SD000031

$$$$
picoperine
     RDKit          2D

 22 24  0  0  0  0  0  0  0  0999 V2000
   -1.8393   -0.0288    0.0000 N   0  0  0  0  0  0  0  0  0  0  0  0
   -0.9761   -0.5288    0.0000 C   0  0  0  0  0  0  0  0  0  0  0  0
   -2.7049   -0.5286    0.0000 C   0  0  0  0  0  0  0  0  0  0  0  0
   -1.8326    0.9814    0.0000 C   0  0  0  0  0  0  0  0  0  0  0  0
   -0.1049   -0.0249    0.0000 C   0  0  0  0  0  0  0  0  0  0  0  0
   -2.7042   -1.5293    0.0000 C   0  0  0  0  0  0  0  0  0  0  0  0
   -2.7168    1.4656    0.0000 C   0  0  0  0  0  0  0  0  0  0  0  0
   -0.9910    1.4673    0.0000 C   0  0  0  0  0  0  0  0  0  0  0  0
   -0.1141    0.9782    0.0000 C   0  0  0  0  0  0  0  0  0  0  0  0
    0.7603   -0.5322    0.0000 N   0  0  0  0  0  0  0  0  0  0  0  0
   -3.5607   -2.0253    0.0000 N   0  0  0  0  0  0  0  0  0  0  0  0
   -2.6958    2.4735    0.0000 C   0  0  0  0  0  0  0  0  0  0  0  0
   -0.9678    2.4775    0.0000 C   0  0  0  0  0  0  0  0  0  0  0  0
    0.7470    1.4690    0.0000 C   0  0  0  0  0  0  0  0  0  0  0  0
    1.6146   -0.0297    0.0000 C   0  0  0  0  0  0  0  0  0  0  0  0
   -3.5836   -3.0338    0.0000 C   0  0  0  0  0  0  0  0  0  0  0  0
   -4.4463   -1.5424    0.0000 C   0  0  0  0  0  0  0  0  0  0  0  0
   -1.8550    2.9610    0.0000 C   0  0  0  0  0  0  0  0  0  0  0  0
    1.6189    0.9734    0.0000 C   0  0  0  0  0  0  0  0  0  0  0  0
   -4.4236   -3.5206    0.0000 C   0  0  0  0  0  0  0  0  0  0  0  0
   -5.2870   -2.0279    0.0000 C   0  0  0  0  0  0  0  0  0  0  0  0
   -5.3116   -3.0382    0.0000 C   0  0  0  0  0  0  0  0  0  0  0  0
  1  2  1  0
  1  3  1  0
  1  4  1  0
  2  5  1  0
  3  6  1  0
  4  7  2  0
  4  8  1  0
  5  9  2  0
  5 10  1  0
  6 11  1  0
  7 12  1  0
  8 13  2  0
  9 14  1  0
 10 15  2  0
 11 16  1  0
 11 17  1  0
 12 18  2  0
 13 18  1  0
 14 19  2  0
 15 19  1  0
 16 20  1  0
 17 21  1  0
 20 22  1  0
 21 22  1  0
M  END
>  <cdk:Title>  (44) 
picoperine

>  <Conformer>  (44) 
1

>  <SuperDrugID>  (44) 
SD002990

$$$$
nicotinyl methylamide
     RDKit          2D

 10 10  0  0  0  0  0  0  0  0999 V2000
   -0.1050   -0.0247    0.0000 C   0  0  0  0  0  0  0  0  0  0  0  0
    0.7601   -0.5322    0.0000 C   0  0  0  0  0  0  0  0  0  0  0  0
    1.6144   -0.0299    0.0000 N   0  0  0  0  0  0  0  0  0  0  0  0
    1.6190    0.9733    0.0000 C   0  0  0  0  0  0  0  0  0  0  0  0
    0.7472    1.4690    0.0000 C   0  0  0  0  0  0  0  0  0  0  0  0
   -0.1140    0.9784    0.0000 C   0  0  0  0  0  0  0  0  0  0  0  0
   -0.9791   -0.5305    0.0000 C   0  0  0  0  0  0  0  0  0  0  0  0
   -1.8453   -0.0311    0.0000 N   0  0  0  0  0  0  0  0  0  0  0  0
   -0.9781   -1.5304    0.0000 O   0  0  0  0  0  0  0  0  0  0  0  0
   -2.7109   -0.5317    0.0000 C   0  0  0  0  0  0  0  0  0  0  0  0
  1  2  2  0
  2  3  1  0
  3  4  2  0
  4  5  1  0
  5  6  2  0
  1  6  1  0
  1  7  1  0
  7  8  1  0
  7  9  2  0
  8 10  1  0
M  END
>  <cdk:Title>  (45) 
nicotinyl methylamide

>  <Conformer>  (45) 
1

>  <SuperDrugID>  (45) 
SD003805

$$$$
clobazam
     RDKit          2D

 21 23  0  0  0  0  0  0  0  0999 V2000
   -1.5278   -1.2220    0.0000 C   0  0  0  0  0  0  0  0  0  0  0  0
   -1.1128   -0.3064    0.0000 N   0  0  0  0  0  0  0  0  0  0  0  0
   -0.1078   -0.2830    0.0000 C   0  0  0  0  0  0  0  0  0  0  0  0
    0.2812   -1.2102    0.0000 C   0  0  0  0  0  0  0  0  0  0  0  0
    1.2786   -1.3368    0.0000 C   0  0  0  0  0  0  0  0  0  0  0  0
    1.8870   -0.5364    0.0000 C   0  0  0  0  0  0  0  0  0  0  0  0
    2.8842   -0.6630    0.0000 Cl  0  0  0  0  0  0  0  0  0  0  0  0
    1.4980    0.3906    0.0000 C   0  0  0  0  0  0  0  0  0  0  0  0
    0.5006    0.5174    0.0000 C   0  0  0  0  0  0  0  0  0  0  0  0
    0.2542    1.4920    0.0000 N   0  0  0  0  0  0  0  0  0  0  0  0
    1.0254    2.1370    0.0000 C   0  0  0  0  0  0  0  0  0  0  0  0
    0.8534    3.1220    0.0000 C   0  0  0  0  0  0  0  0  0  0  0  0
    1.6204    3.7636    0.0000 C   0  0  0  0  0  0  0  0  0  0  0  0
    2.5596    3.4202    0.0000 C   0  0  0  0  0  0  0  0  0  0  0  0
    2.7316    2.4350    0.0000 C   0  0  0  0  0  0  0  0  0  0  0  0
    1.9646    1.7934    0.0000 C   0  0  0  0  0  0  0  0  0  0  0  0
   -0.6616    1.9072    0.0000 C   0  0  0  0  0  0  0  0  0  0  0  0
   -0.6848    2.9122    0.0000 O   0  0  0  0  0  0  0  0  0  0  0  0
   -1.5570    1.4498    0.0000 C   0  0  0  0  0  0  0  0  0  0  0  0
   -1.7580    0.4648    0.0000 C   0  0  0  0  0  0  0  0  0  0  0  0
   -2.7326    0.2184    0.0000 O   0  0  0  0  0  0  0  0  0  0  0  0
  1  2  1  0
  2  3  1  0
  3  4  2  0
  4  5  1  0
  5  6  2  0
  6  7  1  0
  6  8  1  0
  8  9  2  0
  3  9  1  0
  9 10  1  0
 10 11  1  0
 11 12  2  0
 12 13  1  0
 13 14  2  0
 14 15  1  0
 15 16  2  0
 11 16  1  0
 10 17  1  0
 17 18  2  0
 17 19  1  0
 19 20  1  0
  2 20  1  0
 20 21  2  0
M  END
>  <cdk:Title>  (46) 
clobazam

>  <Conformer>  (46) 
1

>  <SuperDrugID>  (46) 
SD000601

$$$$
retigabine
     RDKit          2D

 22 23  0  0  0  0  0  0  0  0999 V2000
    4.1622   -3.0493    0.0000 C   0  0  0  0  0  0  0  0  0  0  0  0
    3.2865   -2.5584    0.0000 C   0  0  0  0  0  0  0  0  0  0  0  0
    2.4384   -3.0466    0.0000 C   0  0  0  0  0  0  0  0  0  0  0  0
    2.4230   -4.0544    0.0000 C   0  0  0  0  0  0  0  0  0  0  0  0
    3.3031   -4.5443    0.0000 C   0  0  0  0  0  0  0  0  0  0  0  0
    4.1499   -4.0536    0.0000 C   0  0  0  0  0  0  0  0  0  0  0  0
    1.5635   -2.5494    0.0000 C   0  0  0  0  0  0  0  0  0  0  0  0
    1.5648   -1.5511    0.0000 N   0  0  0  0  0  0  0  0  0  0  0  0
    0.7097   -1.0569    0.0000 C   0  0  0  0  0  0  0  0  0  0  0  0
   -1.0495   -1.0363    0.0000 C   0  0  0  0  0  0  0  0  0  0  0  0
   -1.0288   -0.0362    0.0000 C   0  0  0  0  0  0  0  0  0  0  0  0
   -0.1825    0.4739    0.0000 C   0  0  0  0  0  0  0  0  0  0  0  0
    0.6864   -0.0567    0.0000 C   0  0  0  0  0  0  0  0  0  0  0  0
   -0.1585   -1.5288    0.0000 C   0  0  0  0  0  0  0  0  0  0  0  0
   -0.1793    1.4637    0.0000 N   0  0  0  0  0  0  0  0  0  0  0  0
   -1.9034    0.4699    0.0000 N   0  0  0  0  0  0  0  0  0  0  0  0
   -2.7704   -0.0291    0.0000 C   0  0  0  0  0  0  0  0  0  0  0  0
   -3.6356    0.4723    0.0000 O   0  0  0  0  0  0  0  0  0  0  0  0
   -2.7723   -1.0293    0.0000 O   0  0  0  0  0  0  0  0  0  0  0  0
   -3.6397   -1.5276    0.0000 C   0  0  0  0  0  0  0  0  0  0  0  0
   -3.6420   -2.5277    0.0000 C   0  0  0  0  0  0  0  0  0  0  0  0
    5.0282   -4.5494    0.0000 F   0  0  0  0  0  0  0  0  0  0  0  0
  1  2  2  0
  1  6  1  0
  2  3  1  0
  3  4  2  0
  4  5  1  0
  5  6  2  0
  3  7  1  0
  7  8  1  0
  8  9  1  0
 13  9  1  0
  9 14  2  0
 10 11  2  0
 10 14  1  0
 11 12  1  0
 12 13  2  0
 12 15  1  0
 11 16  1  0
 16 17  1  0
 17 18  2  0
 17 19  1  0
 19 20  1  0
 20 21  1  0
  6 22  1  0
M  END
>  <cdk:Title>  (47) 
retigabine

>  <Conformer>  (47) 
1

>  <SuperDrugID>  (47) 
SD003411

$$$$
melinamide
     RDKit          2D

 28 28  0  0  0  0  0  0  0  0999 V2000
   -2.7873   -0.2087    0.0000 N   0  0  0  0  0  0  0  0  0  0  0  0
   -3.6497   -0.7126    0.0000 C   0  0  0  0  0  0  0  0  0  0  0  0
   -3.6438   -1.7120    0.0000 C   0  0  0  0  0  0  0  0  0  0  0  0
   -4.5183   -0.2173    0.0000 O   0  0  0  0  0  0  0  0  0  0  0  0
   -4.5062   -2.2167    0.0000 C   0  0  0  0  0  0  0  0  0  0  0  0
   -4.5001   -3.2163    0.0000 C   0  0  0  0  0  0  0  0  0  0  0  0
   -5.3628   -3.7210    0.0000 C   0  0  0  0  0  0  0  0  0  0  0  0
   -5.3572   -4.7206    0.0000 C   0  0  0  0  0  0  0  0  0  0  0  0
   -6.2203   -5.2251    0.0000 C   0  0  0  0  0  0  0  0  0  0  0  0
   -6.2151   -6.2248    0.0000 C   0  0  0  0  0  0  0  0  0  0  0  0
   -7.0784   -6.7292    0.0000 C   0  0  0  0  0  0  0  0  0  0  0  0
   -7.0732   -7.7290    0.0000 C   0  0  0  0  0  0  0  0  0  0  0  0
   -6.2046   -8.2244    0.0000 C   0  0  0  0  0  0  0  0  0  0  0  0
   -6.1994   -9.2244    0.0000 C   0  0  0  0  0  0  0  0  0  0  0  0
   -5.3308   -9.7198    0.0000 C   0  0  0  0  0  0  0  0  0  0  0  0
   -4.4674   -9.2153    0.0000 C   0  0  0  0  0  0  0  0  0  0  0  0
   -3.5988   -9.7108    0.0000 C   0  0  0  0  0  0  0  0  0  0  0  0
   -2.7354   -9.2064    0.0000 C   0  0  0  0  0  0  0  0  0  0  0  0
   -1.8668   -9.7020    0.0000 C   0  0  0  0  0  0  0  0  0  0  0  0
   -1.0033   -9.1976    0.0000 C   0  0  0  0  0  0  0  0  0  0  0  0
   -1.9199   -0.7048    0.0000 C   0  0  0  0  0  0  0  0  0  0  0  0
   -1.0487   -0.1963    0.0000 C   0  0  0  0  0  0  0  0  0  0  0  0
   -1.9152   -1.7047    0.0000 C   0  0  0  0  0  0  0  0  0  0  0  0
   -1.0601    0.8031    0.0000 C   0  0  0  0  0  0  0  0  0  0  0  0
   -0.1814   -0.6981    0.0000 C   0  0  0  0  0  0  0  0  0  0  0  0
    0.6758   -0.1912    0.0000 C   0  0  0  0  0  0  0  0  0  0  0  0
    0.6757    0.8083    0.0000 C   0  0  0  0  0  0  0  0  0  0  0  0
   -0.1972    1.3003    0.0000 C   0  0  0  0  0  0  0  0  0  0  0  0
  1  2  1  0
  2  3  1  0
  2  4  2  0
  3  5  1  0
  5  6  1  0
  6  7  1  0
  7  8  1  0
  8  9  1  0
  9 10  1  0
 10 11  1  0
 11 12  2  0
 12 13  1  0
 13 14  1  0
 14 15  2  0
 15 16  1  0
 16 17  1  0
 17 18  1  0
 18 19  1  0
 19 20  1  0
 21  1  1  0
 21 22  1  0
 21 23  1  0
 25 26  2  0
 26 27  1  0
 27 28  2  0
 24 28  1  0
 24 22  2  0
 22 25  1  0
M  END
>  <cdk:Title>  (48) 
melinamide

>  <Conformer>  (48) 
1

>  <SuperDrugID>  (48) 
SD001480

$$$$
oxolamine
     RDKit          2D

 18 19  0  0  0  0  0  0  0  0999 V2000
   -2.4945   -1.2331    0.0000 C   0  0  0  0  0  0  0  0  0  0  0  0
   -2.8972   -0.3184    0.0000 C   0  0  0  0  0  0  0  0  0  0  0  0
   -1.5068   -1.3401    0.0000 C   0  0  0  0  0  0  0  0  0  0  0  0
   -3.8927   -0.2131    0.0000 N   0  0  0  0  0  0  0  0  0  0  0  0
   -0.8177   -0.6275    0.0000 N   0  0  0  0  0  0  0  0  0  0  0  0
   -1.0077   -2.2282    0.0000 O   0  0  0  0  0  0  0  0  0  0  0  0
   -4.4817   -1.0222    0.0000 C   0  0  0  0  0  0  0  0  0  0  0  0
   -4.2991    0.7003    0.0000 C   0  0  0  0  0  0  0  0  0  0  0  0
    0.1000   -1.0215    0.0000 C   0  0  0  0  0  0  0  0  0  0  0  0
   -0.0394   -2.0095    0.0000 N   0  0  0  0  0  0  0  0  0  0  0  0
   -4.0764   -1.9366    0.0000 C   0  0  0  0  0  0  0  0  0  0  0  0
   -5.2938    0.8045    0.0000 C   0  0  0  0  0  0  0  0  0  0  0  0
    0.9418   -0.5357    0.0000 C   0  0  0  0  0  0  0  0  0  0  0  0
    1.8231   -1.0094    0.0000 C   0  0  0  0  0  0  0  0  0  0  0  0
    0.9684    0.4638    0.0000 C   0  0  0  0  0  0  0  0  0  0  0  0
    2.7132   -0.5248    0.0000 C   0  0  0  0  0  0  0  0  0  0  0  0
    1.8312    0.9954    0.0000 C   0  0  0  0  0  0  0  0  0  0  0  0
    2.6856    0.4745    0.0000 C   0  0  0  0  0  0  0  0  0  0  0  0
  1  2  1  0
  1  3  1  0
  2  4  1  0
  3  5  2  0
  3  6  1  0
  4  7  1  0
  4  8  1  0
  5  9  1  0
  6 10  1  0
  7 11  1  0
  8 12  1  0
  9 10  2  0
  9 13  1  0
 13 14  2  0
 13 15  1  0
 14 16  1  0
 15 17  2  0
 16 18  2  0
 17 18  1  0
M  END
>  <cdk:Title>  (49) 
oxolamine

>  <Conformer>  (49) 
1

>  <SuperDrugID>  (49) 
SD001810

$$$$
sufentanil
     RDKit          2D

 27 29  0  0  0  0  0  0  0  0999 V2000
   -4.6893   -2.6753    0.0000 N   0  0  0  0  0  0  0  0  0  0  0  0
   -4.0447   -3.4408    0.0000 C   0  0  0  0  0  0  0  0  0  0  0  0
   -4.3386   -1.7359    0.0000 C   0  0  0  0  0  0  0  0  0  0  0  0
   -5.6767   -2.8516    0.0000 C   0  0  0  0  0  0  0  0  0  0  0  0
   -4.3855   -4.3813    0.0000 C   0  0  0  0  0  0  0  0  0  0  0  0
   -3.0602   -3.2659    0.0000 O   0  0  0  0  0  0  0  0  0  0  0  0
   -5.3326   -1.5557    0.0000 C   0  0  0  0  0  0  0  0  0  0  0  0
   -3.4829   -2.2342    0.0000 C   0  0  0  0  0  0  0  0  0  0  0  0
   -4.3414   -0.7323    0.0000 C   0  0  0  0  0  0  0  0  0  0  0  0
   -5.9989   -3.7991    0.0000 C   0  0  0  0  0  0  0  0  0  0  0  0
   -6.3039   -2.0690    0.0000 C   0  0  0  0  0  0  0  0  0  0  0  0
   -3.7416   -5.1466    0.0000 C   0  0  0  0  0  0  0  0  0  0  0  0
   -5.6702   -0.6150    0.0000 O   0  0  0  0  0  0  0  0  0  0  0  0
   -2.6084   -1.7413    0.0000 C   0  0  0  0  0  0  0  0  0  0  0  0
   -3.4679   -0.2392    0.0000 C   0  0  0  0  0  0  0  0  0  0  0  0
   -6.9889   -3.9505    0.0000 C   0  0  0  0  0  0  0  0  0  0  0  0
   -7.2863   -2.2634    0.0000 C   0  0  0  0  0  0  0  0  0  0  0  0
   -6.6545   -0.4377    0.0000 C   0  0  0  0  0  0  0  0  0  0  0  0
   -2.6118   -0.7371    0.0000 N   0  0  0  0  0  0  0  0  0  0  0  0
   -7.6497   -3.1959    0.0000 C   0  0  0  0  0  0  0  0  0  0  0  0
   -1.7347   -0.2420    0.0000 C   0  0  0  0  0  0  0  0  0  0  0  0
   -0.8726   -0.7396    0.0000 C   0  0  0  0  0  0  0  0  0  0  0  0
   -0.0173   -0.2440    0.0000 C   0  0  0  0  0  0  0  0  0  0  0  0
    0.1086    0.7471    0.0000 C   0  0  0  0  0  0  0  0  0  0  0  0
    0.9031   -0.6329    0.0000 S   0  0  0  0  0  0  0  0  0  0  0  0
    1.0778    0.9718    0.0000 C   0  0  0  0  0  0  0  0  0  0  0  0
    1.5842    0.0919    0.0000 C   0  0  0  0  0  0  0  0  0  0  0  0
  1  2  1  0
  1  3  1  0
  1  4  1  0
  2  5  1  0
  2  6  2  0
  3  7  1  0
  3  8  1  0
  3  9  1  0
  4 10  2  0
  4 11  1  0
  5 12  1  0
  7 13  1  0
  8 14  1  0
  9 15  1  0
 10 16  1  0
 11 17  2  0
 13 18  1  0
 14 19  1  0
 15 19  1  0
 16 20  2  0
 17 20  1  0
 19 21  1  0
 21 22  1  0
 22 23  1  0
 23 24  2  0
 23 25  1  0
 24 26  1  0
 25 27  1  0
 26 27  2  0
M  END
>  <cdk:Title>  (50) 
sufentanil

>  <Conformer>  (50) 
1

>  <SuperDrugID>  (50) 
SD002238

$$$$
