obj01
 OpenBabel03142012553D

 29 31  0  0  0  0  0  0  0  0999 V2000
  -15.0740   -8.8200  -14.4710 C   0  0  0  0  0  0  0  0  0  0  0  0
  -13.7650   -9.3630  -13.9320 C   0  0  0  0  0  0  0  0  0  0  0  0
  -13.3190   -9.0850  -12.6520 C   0  0  0  0  0  0  0  0  0  0  0  0
  -12.1420   -9.6220  -12.2560 N   0  0  0  0  0  0  0  0  0  0  0  0
  -11.4090  -10.4010  -13.0410 C   0  0  0  0  0  0  0  0  0  0  0  0
  -11.8820  -10.7370  -14.2620 N   0  0  0  0  0  0  0  0  0  0  0  0
  -12.9960  -10.2160  -14.7280 C   0  0  0  0  0  0  0  0  0  0  0  0
  -10.2800  -10.9610  -12.6110 N   0  0  0  0  0  0  0  0  0  0  0  0
   -9.6450  -10.7960  -11.4450 C   0  0  0  0  0  0  0  0  0  0  0  0
   -9.9290   -9.8280  -10.4770 C   0  0  0  0  0  0  0  0  0  0  0  0
   -9.1560   -9.7770   -9.3290 C   0  0  0  0  0  0  0  0  0  0  0  0
   -8.1000  -10.6610   -9.1540 C   0  0  0  0  0  0  0  0  0  0  0  0
   -7.7770  -11.6060  -10.0980 C   0  0  0  0  0  0  0  0  0  0  0  0
   -8.5680  -11.6670  -11.2250 C   0  0  0  0  0  0  0  0  0  0  0  0
   -7.1430  -10.5390   -7.7240 S   0  0  2  0  0  0  0  0  0  0  0  0
   -7.9830   -9.7990   -6.5970 N   0  0  0  0  0  0  0  0  0  0  0  0
   -6.0390   -9.6180   -8.0810 O   0  0  0  0  0  0  0  0  0  0  0  0
   -6.3780  -12.0450   -7.0700 C   0  0  0  0  0  0  0  0  0  0  0  0
   -7.2690  -13.1810   -6.4960 C   0  0  0  0  0  0  0  0  0  0  0  0
   -6.6310  -12.1410   -5.5700 C   0  0  0  0  0  0  0  0  0  0  0  0
  -14.0250   -8.2760  -11.7820 O   0  0  0  0  0  0  0  0  0  0  0  0
  -13.2710   -7.6900  -10.7810 C   0  0  1  0  0  0  0  0  0  0  0  0
  -13.8900   -6.2760  -10.5880 C   0  0  2  0  0  0  0  0  0  0  0  0
  -15.2780   -6.4680  -10.2960 O   0  0  0  0  0  0  0  0  0  0  0  0
  -13.6830   -5.4200  -11.8120 C   0  0  0  0  0  0  0  0  0  0  0  0
  -13.5820   -8.4880   -9.5160 C   0  0  0  0  0  0  0  0  0  0  0  0
  -15.1590   -7.4830  -14.2750 F   0  0  0  0  0  0  0  0  0  0  0  0
  -15.1910   -9.2070  -15.8040 F   0  0  0  0  0  0  0  0  0  0  0  0
  -16.0750   -9.3220  -13.8000 F   0  0  0  0  0  0  0  0  0  0  0  0
  1 27  1  0  0  0  0
  1 28  1  0  0  0  0
  1 29  1  0  0  0  0
  1  2  1  0  0  0  0
  2  3  2  0  0  0  0
  2  7  1  0  0  0  0
  3  4  1  0  0  0  0
  3 21  1  0  0  0  0
  4  5  2  0  0  0  0
  5  6  1  0  0  0  0
  5  8  1  0  0  0  0
  6  7  2  0  0  0  0
  8  9  1  0  0  0  0
  9 10  2  0  0  0  0
  9 14  1  0  0  0  0
 10 11  1  0  0  0  0
 11 12  2  0  0  0  0
 12 13  1  0  0  0  0
 12 15  1  0  0  0  0
 13 14  2  0  0  0  0
 15 16  1  1  0  0  0
 15 17  1  0  0  0  0
 15 18  1  0  0  0  0
 18 19  1  0  0  0  0
 18 20  1  0  0  0  0
 19 20  1  0  0  0  0
 21 22  1  0  0  0  0
 22 26  1  1  0  0  0
 22 23  1  0  0  0  0
 23 24  1  0  0  0  0
 23 25  1  6  0  0  0
M  END
$$$$
